Program Version,EnergyPlus, Version 9.6.0-4b123cf80f, YMD=2022.03.25 18:57
! This file shows details about the branches, nodes, and other
! elements of the flow connections.
! This file is intended for use in "debugging" potential problems
! that may also be detected by the program, but may be more easily
! identified by "eye".
! This file is also intended to support software which draws a
! schematic diagram of the HVAC system.
! ===============================================================
! #Nodes,<Number of Unique Nodes>
 #Nodes,627
! <Node>,<NodeNumber>,<Node Name>,<Node Fluid Type>,<# Times Node Referenced After Definition>
 Node,1,BASEMENT ZN VAV TERMINAL OUTLET AIR NODE,Air,4
 Node,2,BASEMENT ZN RETURN AIR NODE,Air,2
 Node,3,CORRIDOR_FLR_1 ZN VAV TERMINAL OUTLET AIR NODE,Air,4
 Node,4,CORRIDOR_FLR_1 ZN RETURN AIR NODE,Air,2
 Node,5,CORRIDOR_FLR_2 ZN VAV TERMINAL OUTLET AIR NODE,Air,4
 Node,6,CORRIDOR_FLR_2 ZN RETURN AIR NODE,Air,2
 Node,7,CORRIDOR_FLR_5 ZN VAV TERMINAL OUTLET AIR NODE,Air,4
 Node,8,CORRIDOR_FLR_5 ZN RETURN AIR NODE,Air,2
 Node,9,CORRIDOR_NW_FLR_3 ZN VAV TERMINAL OUTLET AIR NODE,Air,4
 Node,10,CORRIDOR_NW_FLR_3 ZN RETURN AIR NODE,Air,2
 Node,11,CORRIDOR_NW_FLR_4 ZN VAV TERMINAL OUTLET AIR NODE,Air,4
 Node,12,CORRIDOR_NW_FLR_4 ZN RETURN AIR NODE,Air,2
 Node,13,CORRIDOR_SE_FLR_3 ZN VAV TERMINAL OUTLET AIR NODE,Air,4
 Node,14,CORRIDOR_SE_FLR_3 ZN RETURN AIR NODE,Air,2
 Node,15,CORRIDOR_SE_FLR_4 ZN VAV TERMINAL OUTLET AIR NODE,Air,4
 Node,16,CORRIDOR_SE_FLR_4 ZN RETURN AIR NODE,Air,2
 Node,17,DINING_FLR_5 ZN VAV TERMINAL OUTLET AIR NODE,Air,4
 Node,18,DINING_FLR_5 ZN RETURN AIR NODE,Air,2
 Node,19,ER_EXAM1_MULT4_FLR_1 ZN VAV TERMINAL OUTLET AIR NODE,Air,4
 Node,20,ER_EXAM1_MULT4_FLR_1 ZN RETURN AIR NODE,Air,2
 Node,21,ER_EXAM3_MULT4_FLR_1 ZN VAV TERMINAL OUTLET AIR NODE,Air,4
 Node,22,ER_EXAM3_MULT4_FLR_1 ZN RETURN AIR NODE,Air,2
 Node,23,ER_NURSESTN_LOBBY_FLR_1 ZN VAV TERMINAL OUTLET AIR NODE,Air,4
 Node,24,ER_NURSESTN_LOBBY_FLR_1 ZN RETURN AIR NODE,Air,2
 Node,25,ER_TRAUMA1_FLR_1 ZN VAV TERMINAL OUTLET AIR NODE,Air,4
 Node,26,ER_TRAUMA1_FLR_1 ZN RETURN AIR NODE,Air,2
 Node,27,ER_TRAUMA2_FLR_1 ZN VAV TERMINAL OUTLET AIR NODE,Air,4
 Node,28,ER_TRAUMA2_FLR_1 ZN RETURN AIR NODE,Air,2
 Node,29,ER_TRIAGE_MULT4_FLR_1 ZN VAV TERMINAL OUTLET AIR NODE,Air,4
 Node,30,ER_TRIAGE_MULT4_FLR_1 ZN RETURN AIR NODE,Air,2
 Node,31,ICU_FLR_2 ZN VAV TERMINAL OUTLET AIR NODE,Air,4
 Node,32,ICU_FLR_2 ZN RETURN AIR NODE,Air,2
 Node,33,ICU_NURSESTN_LOBBY_FLR_2 ZN VAV TERMINAL OUTLET AIR NODE,Air,4
 Node,34,ICU_NURSESTN_LOBBY_FLR_2 ZN RETURN AIR NODE,Air,2
 Node,35,IC_PATROOM1_MULT5_FLR_2 ZN VAV TERMINAL OUTLET AIR NODE,Air,4
 Node,36,IC_PATROOM1_MULT5_FLR_2 ZN RETURN AIR NODE,Air,2
 Node,37,IC_PATROOM2_FLR_2 ZN VAV TERMINAL OUTLET AIR NODE,Air,4
 Node,38,IC_PATROOM2_FLR_2 ZN RETURN AIR NODE,Air,2
 Node,39,IC_PATROOM3_MULT6_FLR_2 ZN VAV TERMINAL OUTLET AIR NODE,Air,4
 Node,40,IC_PATROOM3_MULT6_FLR_2 ZN RETURN AIR NODE,Air,2
 Node,41,KITCHEN_FLR_5 ZN CAV TERMINAL OUTLET AIR NODE,Air,3
 Node,42,KITCHEN_FLR_5 ZN EXHAUST FAN INLET AIR NODE,Air,2
 Node,43,KITCHEN_FLR_5 ZN RETURN AIR NODE,Air,2
 Node,44,LAB_FLR_3 ZN VAV TERMINAL OUTLET AIR NODE,Air,4
 Node,45,LAB_FLR_3 ZN RETURN AIR NODE,Air,2
 Node,46,LAB_FLR_4 ZN VAV TERMINAL OUTLET AIR NODE,Air,4
 Node,47,LAB_FLR_4 ZN RETURN AIR NODE,Air,2
 Node,48,LOBBY_RECORDS_FLR_1 ZN VAV TERMINAL OUTLET AIR NODE,Air,4
 Node,49,LOBBY_RECORDS_FLR_1 ZN RETURN AIR NODE,Air,2
 Node,50,NURSESTN_LOBBY_FLR_3 ZN VAV TERMINAL OUTLET AIR NODE,Air,4
 Node,51,NURSESTN_LOBBY_FLR_3 ZN RETURN AIR NODE,Air,2
 Node,52,NURSESTN_LOBBY_FLR_4 ZN VAV TERMINAL OUTLET AIR NODE,Air,4
 Node,53,NURSESTN_LOBBY_FLR_4 ZN RETURN AIR NODE,Air,2
 Node,54,NURSESTN_LOBBY_FLR_5 ZN VAV TERMINAL OUTLET AIR NODE,Air,4
 Node,55,NURSESTN_LOBBY_FLR_5 ZN RETURN AIR NODE,Air,2
 Node,56,OFFICE1_FLR_5 ZN VAV TERMINAL OUTLET AIR NODE,Air,4
 Node,57,OFFICE1_FLR_5 ZN RETURN AIR NODE,Air,2
 Node,58,OFFICE1_MULT4_FLR_1 ZN VAV TERMINAL OUTLET AIR NODE,Air,4
 Node,59,OFFICE1_MULT4_FLR_1 ZN RETURN AIR NODE,Air,2
 Node,60,OFFICE2_MULT5_FLR_5 ZN VAV TERMINAL OUTLET AIR NODE,Air,4
 Node,61,OFFICE2_MULT5_FLR_5 ZN RETURN AIR NODE,Air,2
 Node,62,OFFICE3_FLR_5 ZN VAV TERMINAL OUTLET AIR NODE,Air,4
 Node,63,OFFICE3_FLR_5 ZN RETURN AIR NODE,Air,2
 Node,64,OFFICE4_MULT6_FLR_5 ZN VAV TERMINAL OUTLET AIR NODE,Air,4
 Node,65,OFFICE4_MULT6_FLR_5 ZN RETURN AIR NODE,Air,2
 Node,66,OR1_FLR_2 ZN VAV TERMINAL OUTLET AIR NODE,Air,4
 Node,67,OR1_FLR_2 ZN RETURN AIR NODE,Air,2
 Node,68,OR2_MULT5_FLR_2 ZN VAV TERMINAL OUTLET AIR NODE,Air,4
 Node,69,OR2_MULT5_FLR_2 ZN RETURN AIR NODE,Air,2
 Node,70,OR3_FLR_2 ZN VAV TERMINAL OUTLET AIR NODE,Air,4
 Node,71,OR3_FLR_2 ZN RETURN AIR NODE,Air,2
 Node,72,OR4_FLR_2 ZN VAV TERMINAL OUTLET AIR NODE,Air,4
 Node,73,OR4_FLR_2 ZN RETURN AIR NODE,Air,2
 Node,74,OR_NURSESTN_LOBBY_FLR_2 ZN VAV TERMINAL OUTLET AIR NODE,Air,4
 Node,75,OR_NURSESTN_LOBBY_FLR_2 ZN RETURN AIR NODE,Air,2
 Node,76,PATROOM1_MULT10_FLR_3 ZN VAV TERMINAL OUTLET AIR NODE,Air,4
 Node,77,PATROOM1_MULT10_FLR_3 ZN RETURN AIR NODE,Air,2
 Node,78,PATROOM1_MULT10_FLR_4 ZN VAV TERMINAL OUTLET AIR NODE,Air,4
 Node,79,PATROOM1_MULT10_FLR_4 ZN RETURN AIR NODE,Air,2
 Node,80,PATROOM2_FLR_3 ZN VAV TERMINAL OUTLET AIR NODE,Air,4
 Node,81,PATROOM2_FLR_3 ZN RETURN AIR NODE,Air,2
 Node,82,PATROOM2_FLR_4 ZN VAV TERMINAL OUTLET AIR NODE,Air,4
 Node,83,PATROOM2_FLR_4 ZN RETURN AIR NODE,Air,2
 Node,84,PATROOM3_MULT10_FLR_3 ZN VAV TERMINAL OUTLET AIR NODE,Air,4
 Node,85,PATROOM3_MULT10_FLR_3 ZN RETURN AIR NODE,Air,2
 Node,86,PATROOM3_MULT10_FLR_4 ZN VAV TERMINAL OUTLET AIR NODE,Air,4
 Node,87,PATROOM3_MULT10_FLR_4 ZN RETURN AIR NODE,Air,2
 Node,88,PATROOM4_FLR_3 ZN VAV TERMINAL OUTLET AIR NODE,Air,4
 Node,89,PATROOM4_FLR_3 ZN RETURN AIR NODE,Air,2
 Node,90,PATROOM4_FLR_4 ZN VAV TERMINAL OUTLET AIR NODE,Air,4
 Node,91,PATROOM4_FLR_4 ZN RETURN AIR NODE,Air,2
 Node,92,PATROOM5_MULT10_FLR_3 ZN VAV TERMINAL OUTLET AIR NODE,Air,4
 Node,93,PATROOM5_MULT10_FLR_3 ZN RETURN AIR NODE,Air,2
 Node,94,PATROOM5_MULT10_FLR_4 ZN VAV TERMINAL OUTLET AIR NODE,Air,4
 Node,95,PATROOM5_MULT10_FLR_4 ZN RETURN AIR NODE,Air,2
 Node,96,PATROOM6_FLR_3 ZN VAV TERMINAL OUTLET AIR NODE,Air,4
 Node,97,PATROOM6_FLR_3 ZN RETURN AIR NODE,Air,2
 Node,98,PATROOM6_FLR_4 ZN VAV TERMINAL OUTLET AIR NODE,Air,4
 Node,99,PATROOM6_FLR_4 ZN RETURN AIR NODE,Air,2
 Node,100,PATROOM7_MULT10_FLR_3 ZN VAV TERMINAL OUTLET AIR NODE,Air,4
 Node,101,PATROOM7_MULT10_FLR_3 ZN RETURN AIR NODE,Air,2
 Node,102,PATROOM7_MULT10_FLR_4 ZN VAV TERMINAL OUTLET AIR NODE,Air,4
 Node,103,PATROOM7_MULT10_FLR_4 ZN RETURN AIR NODE,Air,2
 Node,104,PATROOM8_FLR_3 ZN VAV TERMINAL OUTLET AIR NODE,Air,4
 Node,105,PATROOM8_FLR_3 ZN RETURN AIR NODE,Air,2
 Node,106,PATROOM8_FLR_4 ZN VAV TERMINAL OUTLET AIR NODE,Air,4
 Node,107,PATROOM8_FLR_4 ZN RETURN AIR NODE,Air,2
 Node,108,PHYSTHERAPY_FLR_3 ZN VAV TERMINAL OUTLET AIR NODE,Air,4
 Node,109,PHYSTHERAPY_FLR_3 ZN RETURN AIR NODE,Air,2
 Node,110,RADIOLOGY_FLR_4 ZN VAV TERMINAL OUTLET AIR NODE,Air,4
 Node,111,RADIOLOGY_FLR_4 ZN RETURN AIR NODE,Air,2
 Node,112,CAV_KITCHEN SUPPLY OUTLET NODE,Air,10
 Node,113,CAV_KITCHEN DEMAND INLET NODE,Air,3
 Node,114,VAV_1 SUPPLY OUTLET NODE,Air,10
 Node,115,VAV_1 DEMAND INLET NODE,Air,3
 Node,116,VAV_2 SUPPLY OUTLET NODE,Air,10
 Node,117,VAV_2 DEMAND INLET NODE,Air,3
 Node,118,VAV_ER SUPPLY OUTLET NODE,Air,9
 Node,119,VAV_ER DEMAND INLET NODE,Air,3
 Node,120,VAV_ICU SUPPLY OUTLET NODE,Air,9
 Node,121,VAV_ICU DEMAND INLET NODE,Air,3
 Node,122,VAV_LABS SUPPLY OUTLET NODE,Air,9
 Node,123,VAV_LABS DEMAND INLET NODE,Air,3
 Node,124,VAV_OR SUPPLY OUTLET NODE,Air,9
 Node,125,VAV_OR DEMAND INLET NODE,Air,3
 Node,126,VAV_PATRMS SUPPLY OUTLET NODE,Air,9
 Node,127,VAV_PATRMS DEMAND INLET NODE,Air,3
 Node,128,CAV_KITCHEN SUPPLY INLET NODE,Air,3
 Node,129,CAV_KITCHEN MIXED AIR NODE,Air,5
 Node,130,CAV_KITCHEN CLG COIL OUTLET AIR NODE,Air,5
 Node,131,CAV_KITCHEN MAIN HTG COIL OUTLET AIR NODE,Air,8
 Node,132,VAV_1 SUPPLY INLET NODE,Air,3
 Node,133,VAV_1 MIXED AIR NODE,Air,5
 Node,134,VAV_1 CLG COIL OUTLET AIR NODE,Air,5
 Node,135,VAV_1 MAIN HTG COIL OUTLET AIR NODE,Air,8
 Node,136,VAV_2 SUPPLY INLET NODE,Air,3
 Node,137,VAV_2 MIXED AIR NODE,Air,5
 Node,138,VAV_2 CLG COIL OUTLET AIR NODE,Air,5
 Node,139,VAV_2 MAIN HTG COIL OUTLET AIR NODE,Air,8
 Node,140,VAV_ER SUPPLY INLET NODE,Air,3
 Node,141,VAV_ER MIXED AIR NODE,Air,5
 Node,142,VAV_ER CLG COIL OUTLET AIR NODE,Air,5
 Node,143,VAV_ER MAIN HTG COIL OUTLET AIR NODE,Air,5
 Node,144,VAV_ER ELECTRIC STEAM HUMIDIFIER OUTLET AIR NODE,Air,9
 Node,145,VAV_ER FAN OUTLET AIR NODE,Air,8
 Node,146,ER_EXAM3_MULT4_FLR_1 ELECTRIC HTG COIL OUTLET AIR NODE,Air,5
 Node,147,VAV_ICU SUPPLY INLET NODE,Air,3
 Node,148,VAV_ICU MIXED AIR NODE,Air,5
 Node,149,VAV_ICU CLG COIL OUTLET AIR NODE,Air,5
 Node,150,VAV_ICU MAIN HTG COIL OUTLET AIR NODE,Air,5
 Node,151,VAV_ICU ELECTRIC STEAM HUMIDIFIER OUTLET AIR NODE,Air,9
 Node,152,VAV_ICU FAN OUTLET AIR NODE,Air,8
 Node,153,ICU_FLR_2 ELECTRIC HTG COIL OUTLET AIR NODE,Air,5
 Node,154,VAV_LABS SUPPLY INLET NODE,Air,3
 Node,155,VAV_LABS MIXED AIR NODE,Air,5
 Node,156,VAV_LABS CLG COIL OUTLET AIR NODE,Air,5
 Node,157,VAV_LABS MAIN HTG COIL OUTLET AIR NODE,Air,5
 Node,158,VAV_LABS ELECTRIC STEAM HUMIDIFIER OUTLET AIR NODE,Air,9
 Node,159,VAV_LABS FAN OUTLET AIR NODE,Air,8
 Node,160,LAB_FLR_3 ELECTRIC HTG COIL OUTLET AIR NODE,Air,5
 Node,161,VAV_OR SUPPLY INLET NODE,Air,3
 Node,162,VAV_OR MIXED AIR NODE,Air,5
 Node,163,VAV_OR CLG COIL OUTLET AIR NODE,Air,5
 Node,164,VAV_OR MAIN HTG COIL OUTLET AIR NODE,Air,5
 Node,165,VAV_OR ELECTRIC STEAM HUMIDIFIER OUTLET AIR NODE,Air,9
 Node,166,VAV_OR FAN OUTLET AIR NODE,Air,8
 Node,167,OR2_MULT5_FLR_2 ELECTRIC HTG COIL OUTLET AIR NODE,Air,5
 Node,168,VAV_PATRMS SUPPLY INLET NODE,Air,3
 Node,169,VAV_PATRMS MIXED AIR NODE,Air,5
 Node,170,VAV_PATRMS CLG COIL OUTLET AIR NODE,Air,5
 Node,171,VAV_PATRMS MAIN HTG COIL OUTLET AIR NODE,Air,5
 Node,172,VAV_PATRMS ELECTRIC STEAM HUMIDIFIER OUTLET AIR NODE,Air,9
 Node,173,VAV_PATRMS FAN OUTLET AIR NODE,Air,8
 Node,174,PATROOM5_MULT10_FLR_4 ELECTRIC HTG COIL OUTLET AIR NODE,Air,5
 Node,175,CHILLED WATER LOOP SUPPLY INLET NODE,Water,2
 Node,176,CHILLED WATER LOOP PRIMARY PUMP OUTLET WATER NODE,Water,1
 Node,177,90.1-2010 WATERCOOLED  CENTRIFUGAL CHILLER 0 189TONS 0.6KW/TON SUPPLY INLET WATER NODE,Water,1
 Node,178,90.1-2010 WATERCOOLED  CENTRIFUGAL CHILLER 0 189TONS 0.6KW/TON SUPPLY OUTLET WATER NODE,Water,1
 Node,179,90.1-2010 WATERCOOLED  CENTRIFUGAL CHILLER 1 189TONS 0.6KW/TON SUPPLY INLET WATER NODE,Water,1
 Node,180,90.1-2010 WATERCOOLED  CENTRIFUGAL CHILLER 1 189TONS 0.6KW/TON SUPPLY OUTLET WATER NODE,Water,1
 Node,181,CHILLED WATER LOOP CHILLER BYPASS INLET WATER NODE,Water,1
 Node,182,CHILLED WATER LOOP CHILLER BYPASS OUTLET WATER NODE,Water,1
 Node,183,CHILLED WATER LOOP SUPPLY OUTLET INLET WATER NODE,Water,1
 Node,184,CHILLED WATER LOOP SUPPLY OUTLET NODE,Water,4
 Node,185,CHILLED WATER LOOP DEMAND INLET NODE,Water,2
 Node,186,CHILLED WATER LOOP SECONDARY PUMP INLET WATER NODE,Water,3
 Node,187,CHILLED WATER LOOP SECONDARY PUMP OUTLET WATER NODE,Water,1
 Node,188,CHILLED WATER LOOP COIL BYPASS INLET WATER NODE,Water,1
 Node,189,CHILLED WATER LOOP COIL BYPASS OUTLET WATER NODE,Water,1
 Node,190,VAV_1 CLG COIL INLET WATER NODE,Water,2
 Node,191,VAV_1 CLG COIL OUTLET WATER NODE,Water,1
 Node,192,VAV_ER CLG COIL INLET WATER NODE,Water,2
 Node,193,VAV_ER CLG COIL OUTLET WATER NODE,Water,1
 Node,194,VAV_OR CLG COIL INLET WATER NODE,Water,2
 Node,195,VAV_OR CLG COIL OUTLET WATER NODE,Water,1
 Node,196,VAV_ICU CLG COIL INLET WATER NODE,Water,2
 Node,197,VAV_ICU CLG COIL OUTLET WATER NODE,Water,1
 Node,198,VAV_PATRMS CLG COIL INLET WATER NODE,Water,2
 Node,199,VAV_PATRMS CLG COIL OUTLET WATER NODE,Water,1
 Node,200,VAV_2 CLG COIL INLET WATER NODE,Water,2
 Node,201,VAV_2 CLG COIL OUTLET WATER NODE,Water,1
 Node,202,VAV_LABS CLG COIL INLET WATER NODE,Water,2
 Node,203,VAV_LABS CLG COIL OUTLET WATER NODE,Water,1
 Node,204,CAV_KITCHEN CLG COIL INLET WATER NODE,Water,2
 Node,205,CAV_KITCHEN CLG COIL OUTLET WATER NODE,Water,1
 Node,206,CHILLED WATER LOOP DEMAND BYPASS PIPE INLET NODE,Water,1
 Node,207,CHILLED WATER LOOP DEMAND BYPASS PIPE OUTLET NODE,Water,1
 Node,208,CHILLED WATER LOOP DEMAND OUTLET INLET WATER NODE,Water,1
 Node,209,CHILLED WATER LOOP DEMAND OUTLET NODE,Water,2
 Node,210,CONDENSER WATER LOOP SUPPLY INLET NODE,Water,2
 Node,211,CONDENSER WATER LOOP CONSTANT PUMP OUTLET WATER NODE,Water,1
 Node,212,CENTRIFUGAL VARIABLE SPEED FAN OPEN COOLING TOWER 38.2 GPM/HP INLET WATER NODE,Water,1
 Node,213,CENTRIFUGAL VARIABLE SPEED FAN OPEN COOLING TOWER 38.2 GPM/HP OUTLET WATER NODE,Water,1
 Node,214,CONDENSER WATER LOOP COOLING TOWER BYPASS INLET WATER NODE,Water,1
 Node,215,CONDENSER WATER LOOP COOLING TOWER BYPASS OUTLET WATER NODE,Water,1
 Node,216,CONDENSER WATER LOOP SUPPLY OUTLET INLET WATER NODE,Water,1
 Node,217,CONDENSER WATER LOOP SUPPLY OUTLET NODE,Water,4
 Node,218,CONDENSER WATER LOOP DEMAND INLET NODE,Water,2
 Node,219,CONDENSER WATER LOOP DEMAND INLET OUTLET WATER NODE,Water,1
 Node,220,CONDENSER WATER LOOP CHILLER BYPASS INLET WATER NODE,Water,1
 Node,221,CONDENSER WATER LOOP CHILLER BYPASS OUTLET WATER NODE,Water,1
 Node,222,90.1-2010 WATERCOOLED  CENTRIFUGAL CHILLER 0 189TONS 0.6KW/TON DEMAND INLET WATER NODE,Water,1
 Node,223,90.1-2010 WATERCOOLED  CENTRIFUGAL CHILLER 0 189TONS 0.6KW/TON DEMAND OUTLET WATER NODE,Water,1
 Node,224,90.1-2010 WATERCOOLED  CENTRIFUGAL CHILLER 1 189TONS 0.6KW/TON DEMAND INLET WATER NODE,Water,1
 Node,225,90.1-2010 WATERCOOLED  CENTRIFUGAL CHILLER 1 189TONS 0.6KW/TON DEMAND OUTLET WATER NODE,Water,1
 Node,226,CONDENSER WATER LOOP DEMAND BYPASS PIPE INLET NODE,Water,1
 Node,227,CONDENSER WATER LOOP DEMAND BYPASS PIPE OUTLET NODE,Water,1
 Node,228,CONDENSER WATER LOOP DEMAND OUTLET INLET WATER NODE,Water,1
 Node,229,CONDENSER WATER LOOP DEMAND OUTLET NODE,Water,2
 Node,230,HOT WATER LOOP SUPPLY INLET NODE,Water,2
 Node,231,HOT WATER LOOP PUMP OUTLET WATER NODE,Water,1
 Node,232,BOILER 4269KBTU/HR 0.8 THERMAL EFF INLET WATER NODE,Water,1
 Node,233,BOILER 4269KBTU/HR 0.8 THERMAL EFF OUTLET WATER NODE,Water,1
 Node,234,HOT WATER LOOP SUPPLY EQUIPMENT BYPASS INLET WATER NODE,Water,1
 Node,235,HOT WATER LOOP SUPPLY EQUIPMENT BYPASS OUTLET WATER NODE,Water,1
 Node,236,HOT WATER LOOP SUPPLY OUTLET INLET WATER NODE,Water,1
 Node,237,HOT WATER LOOP SUPPLY OUTLET NODE,Water,4
 Node,238,HOT WATER LOOP DEMAND INLET NODE,Water,2
 Node,239,HOT WATER LOOP DEMAND INLET OUTLET WATER NODE,Water,1
 Node,240,HOT WATER LOOP COIL BYPASS INLET WATER NODE,Water,1
 Node,241,HOT WATER LOOP COIL BYPASS OUTLET WATER NODE,Water,1
 Node,242,VAV_1 MAIN HTG COIL INLET WATER NODE,Water,2
 Node,243,VAV_1 MAIN HTG COIL OUTLET WATER NODE,Water,1
 Node,244,BASEMENT ZN REHEAT COIL INLET WATER NODE,Water,1
 Node,245,BASEMENT ZN REHEAT COIL OUTLET WATER NODE,Water,1
 Node,246,OFFICE1_MULT4_FLR_1 ZN REHEAT COIL INLET WATER NODE,Water,1
 Node,247,OFFICE1_MULT4_FLR_1 ZN REHEAT COIL OUTLET WATER NODE,Water,1
 Node,248,LOBBY_RECORDS_FLR_1 ZN REHEAT COIL INLET WATER NODE,Water,1
 Node,249,LOBBY_RECORDS_FLR_1 ZN REHEAT COIL OUTLET WATER NODE,Water,1
 Node,250,CORRIDOR_FLR_1 ZN REHEAT COIL INLET WATER NODE,Water,1
 Node,251,CORRIDOR_FLR_1 ZN REHEAT COIL OUTLET WATER NODE,Water,1
 Node,252,ER_NURSESTN_LOBBY_FLR_1 ZN REHEAT COIL INLET WATER NODE,Water,1
 Node,253,ER_NURSESTN_LOBBY_FLR_1 ZN REHEAT COIL OUTLET WATER NODE,Water,1
 Node,254,ICU_NURSESTN_LOBBY_FLR_2 ZN REHEAT COIL INLET WATER NODE,Water,1
 Node,255,ICU_NURSESTN_LOBBY_FLR_2 ZN REHEAT COIL OUTLET WATER NODE,Water,1
 Node,256,CORRIDOR_FLR_2 ZN REHEAT COIL INLET WATER NODE,Water,1
 Node,257,CORRIDOR_FLR_2 ZN REHEAT COIL OUTLET WATER NODE,Water,1
 Node,258,OR_NURSESTN_LOBBY_FLR_2 ZN REHEAT COIL INLET WATER NODE,Water,1
 Node,259,OR_NURSESTN_LOBBY_FLR_2 ZN REHEAT COIL OUTLET WATER NODE,Water,1
 Node,260,VAV_ER MAIN HTG COIL INLET WATER NODE,Water,2
 Node,261,VAV_ER MAIN HTG COIL OUTLET WATER NODE,Water,1
 Node,262,ER_EXAM1_MULT4_FLR_1 ZN REHEAT COIL INLET WATER NODE,Water,1
 Node,263,ER_EXAM1_MULT4_FLR_1 ZN REHEAT COIL OUTLET WATER NODE,Water,1
 Node,264,ER_TRAUMA1_FLR_1 ZN REHEAT COIL INLET WATER NODE,Water,1
 Node,265,ER_TRAUMA1_FLR_1 ZN REHEAT COIL OUTLET WATER NODE,Water,1
 Node,266,ER_EXAM3_MULT4_FLR_1 ZN REHEAT COIL INLET WATER NODE,Water,1
 Node,267,ER_EXAM3_MULT4_FLR_1 ZN REHEAT COIL OUTLET WATER NODE,Water,1
 Node,268,ER_TRAUMA2_FLR_1 ZN REHEAT COIL INLET WATER NODE,Water,1
 Node,269,ER_TRAUMA2_FLR_1 ZN REHEAT COIL OUTLET WATER NODE,Water,1
 Node,270,ER_TRIAGE_MULT4_FLR_1 ZN REHEAT COIL INLET WATER NODE,Water,1
 Node,271,ER_TRIAGE_MULT4_FLR_1 ZN REHEAT COIL OUTLET WATER NODE,Water,1
 Node,272,VAV_OR MAIN HTG COIL INLET WATER NODE,Water,2
 Node,273,VAV_OR MAIN HTG COIL OUTLET WATER NODE,Water,1
 Node,274,OR1_FLR_2 ZN REHEAT COIL INLET WATER NODE,Water,1
 Node,275,OR1_FLR_2 ZN REHEAT COIL OUTLET WATER NODE,Water,1
 Node,276,OR2_MULT5_FLR_2 ZN REHEAT COIL INLET WATER NODE,Water,1
 Node,277,OR2_MULT5_FLR_2 ZN REHEAT COIL OUTLET WATER NODE,Water,1
 Node,278,OR3_FLR_2 ZN REHEAT COIL INLET WATER NODE,Water,1
 Node,279,OR3_FLR_2 ZN REHEAT COIL OUTLET WATER NODE,Water,1
 Node,280,OR4_FLR_2 ZN REHEAT COIL INLET WATER NODE,Water,1
 Node,281,OR4_FLR_2 ZN REHEAT COIL OUTLET WATER NODE,Water,1
 Node,282,VAV_ICU MAIN HTG COIL INLET WATER NODE,Water,2
 Node,283,VAV_ICU MAIN HTG COIL OUTLET WATER NODE,Water,1
 Node,284,IC_PATROOM1_MULT5_FLR_2 ZN REHEAT COIL INLET WATER NODE,Water,1
 Node,285,IC_PATROOM1_MULT5_FLR_2 ZN REHEAT COIL OUTLET WATER NODE,Water,1
 Node,286,IC_PATROOM2_FLR_2 ZN REHEAT COIL INLET WATER NODE,Water,1
 Node,287,IC_PATROOM2_FLR_2 ZN REHEAT COIL OUTLET WATER NODE,Water,1
 Node,288,IC_PATROOM3_MULT6_FLR_2 ZN REHEAT COIL INLET WATER NODE,Water,1
 Node,289,IC_PATROOM3_MULT6_FLR_2 ZN REHEAT COIL OUTLET WATER NODE,Water,1
 Node,290,ICU_FLR_2 ZN REHEAT COIL INLET WATER NODE,Water,1
 Node,291,ICU_FLR_2 ZN REHEAT COIL OUTLET WATER NODE,Water,1
 Node,292,VAV_PATRMS MAIN HTG COIL INLET WATER NODE,Water,2
 Node,293,VAV_PATRMS MAIN HTG COIL OUTLET WATER NODE,Water,1
 Node,294,PATROOM1_MULT10_FLR_3 ZN REHEAT COIL INLET WATER NODE,Water,1
 Node,295,PATROOM1_MULT10_FLR_3 ZN REHEAT COIL OUTLET WATER NODE,Water,1
 Node,296,PATROOM2_FLR_3 ZN REHEAT COIL INLET WATER NODE,Water,1
 Node,297,PATROOM2_FLR_3 ZN REHEAT COIL OUTLET WATER NODE,Water,1
 Node,298,PATROOM3_MULT10_FLR_3 ZN REHEAT COIL INLET WATER NODE,Water,1
 Node,299,PATROOM3_MULT10_FLR_3 ZN REHEAT COIL OUTLET WATER NODE,Water,1
 Node,300,PATROOM4_FLR_3 ZN REHEAT COIL INLET WATER NODE,Water,1
 Node,301,PATROOM4_FLR_3 ZN REHEAT COIL OUTLET WATER NODE,Water,1
 Node,302,PATROOM5_MULT10_FLR_3 ZN REHEAT COIL INLET WATER NODE,Water,1
 Node,303,PATROOM5_MULT10_FLR_3 ZN REHEAT COIL OUTLET WATER NODE,Water,1
 Node,304,PATROOM6_FLR_3 ZN REHEAT COIL INLET WATER NODE,Water,1
 Node,305,PATROOM6_FLR_3 ZN REHEAT COIL OUTLET WATER NODE,Water,1
 Node,306,PATROOM7_MULT10_FLR_3 ZN REHEAT COIL INLET WATER NODE,Water,1
 Node,307,PATROOM7_MULT10_FLR_3 ZN REHEAT COIL OUTLET WATER NODE,Water,1
 Node,308,PATROOM8_FLR_3 ZN REHEAT COIL INLET WATER NODE,Water,1
 Node,309,PATROOM8_FLR_3 ZN REHEAT COIL OUTLET WATER NODE,Water,1
 Node,310,PATROOM1_MULT10_FLR_4 ZN REHEAT COIL INLET WATER NODE,Water,1
 Node,311,PATROOM1_MULT10_FLR_4 ZN REHEAT COIL OUTLET WATER NODE,Water,1
 Node,312,PATROOM2_FLR_4 ZN REHEAT COIL INLET WATER NODE,Water,1
 Node,313,PATROOM2_FLR_4 ZN REHEAT COIL OUTLET WATER NODE,Water,1
 Node,314,PATROOM3_MULT10_FLR_4 ZN REHEAT COIL INLET WATER NODE,Water,1
 Node,315,PATROOM3_MULT10_FLR_4 ZN REHEAT COIL OUTLET WATER NODE,Water,1
 Node,316,PATROOM4_FLR_4 ZN REHEAT COIL INLET WATER NODE,Water,1
 Node,317,PATROOM4_FLR_4 ZN REHEAT COIL OUTLET WATER NODE,Water,1
 Node,318,PATROOM5_MULT10_FLR_4 ZN REHEAT COIL INLET WATER NODE,Water,1
 Node,319,PATROOM5_MULT10_FLR_4 ZN REHEAT COIL OUTLET WATER NODE,Water,1
 Node,320,PATROOM6_FLR_4 ZN REHEAT COIL INLET WATER NODE,Water,1
 Node,321,PATROOM6_FLR_4 ZN REHEAT COIL OUTLET WATER NODE,Water,1
 Node,322,PATROOM7_MULT10_FLR_4 ZN REHEAT COIL INLET WATER NODE,Water,1
 Node,323,PATROOM7_MULT10_FLR_4 ZN REHEAT COIL OUTLET WATER NODE,Water,1
 Node,324,PATROOM8_FLR_4 ZN REHEAT COIL INLET WATER NODE,Water,1
 Node,325,PATROOM8_FLR_4 ZN REHEAT COIL OUTLET WATER NODE,Water,1
 Node,326,VAV_2 MAIN HTG COIL INLET WATER NODE,Water,2
 Node,327,VAV_2 MAIN HTG COIL OUTLET WATER NODE,Water,1
 Node,328,PHYSTHERAPY_FLR_3 ZN REHEAT COIL INLET WATER NODE,Water,1
 Node,329,PHYSTHERAPY_FLR_3 ZN REHEAT COIL OUTLET WATER NODE,Water,1
 Node,330,NURSESTN_LOBBY_FLR_3 ZN REHEAT COIL INLET WATER NODE,Water,1
 Node,331,NURSESTN_LOBBY_FLR_3 ZN REHEAT COIL OUTLET WATER NODE,Water,1
 Node,332,CORRIDOR_SE_FLR_3 ZN REHEAT COIL INLET WATER NODE,Water,1
 Node,333,CORRIDOR_SE_FLR_3 ZN REHEAT COIL OUTLET WATER NODE,Water,1
 Node,334,CORRIDOR_NW_FLR_3 ZN REHEAT COIL INLET WATER NODE,Water,1
 Node,335,CORRIDOR_NW_FLR_3 ZN REHEAT COIL OUTLET WATER NODE,Water,1
 Node,336,RADIOLOGY_FLR_4 ZN REHEAT COIL INLET WATER NODE,Water,1
 Node,337,RADIOLOGY_FLR_4 ZN REHEAT COIL OUTLET WATER NODE,Water,1
 Node,338,NURSESTN_LOBBY_FLR_4 ZN REHEAT COIL INLET WATER NODE,Water,1
 Node,339,NURSESTN_LOBBY_FLR_4 ZN REHEAT COIL OUTLET WATER NODE,Water,1
 Node,340,CORRIDOR_SE_FLR_4 ZN REHEAT COIL INLET WATER NODE,Water,1
 Node,341,CORRIDOR_SE_FLR_4 ZN REHEAT COIL OUTLET WATER NODE,Water,1
 Node,342,CORRIDOR_NW_FLR_4 ZN REHEAT COIL INLET WATER NODE,Water,1
 Node,343,CORRIDOR_NW_FLR_4 ZN REHEAT COIL OUTLET WATER NODE,Water,1
 Node,344,DINING_FLR_5 ZN REHEAT COIL INLET WATER NODE,Water,1
 Node,345,DINING_FLR_5 ZN REHEAT COIL OUTLET WATER NODE,Water,1
 Node,346,NURSESTN_LOBBY_FLR_5 ZN REHEAT COIL INLET WATER NODE,Water,1
 Node,347,NURSESTN_LOBBY_FLR_5 ZN REHEAT COIL OUTLET WATER NODE,Water,1
 Node,348,OFFICE1_FLR_5 ZN REHEAT COIL INLET WATER NODE,Water,1
 Node,349,OFFICE1_FLR_5 ZN REHEAT COIL OUTLET WATER NODE,Water,1
 Node,350,OFFICE2_MULT5_FLR_5 ZN REHEAT COIL INLET WATER NODE,Water,1
 Node,351,OFFICE2_MULT5_FLR_5 ZN REHEAT COIL OUTLET WATER NODE,Water,1
 Node,352,OFFICE3_FLR_5 ZN REHEAT COIL INLET WATER NODE,Water,1
 Node,353,OFFICE3_FLR_5 ZN REHEAT COIL OUTLET WATER NODE,Water,1
 Node,354,OFFICE4_MULT6_FLR_5 ZN REHEAT COIL INLET WATER NODE,Water,1
 Node,355,OFFICE4_MULT6_FLR_5 ZN REHEAT COIL OUTLET WATER NODE,Water,1
 Node,356,CORRIDOR_FLR_5 ZN REHEAT COIL INLET WATER NODE,Water,1
 Node,357,CORRIDOR_FLR_5 ZN REHEAT COIL OUTLET WATER NODE,Water,1
 Node,358,VAV_LABS MAIN HTG COIL INLET WATER NODE,Water,2
 Node,359,VAV_LABS MAIN HTG COIL OUTLET WATER NODE,Water,1
 Node,360,LAB_FLR_3 ZN REHEAT COIL INLET WATER NODE,Water,1
 Node,361,LAB_FLR_3 ZN REHEAT COIL OUTLET WATER NODE,Water,1
 Node,362,LAB_FLR_4 ZN REHEAT COIL INLET WATER NODE,Water,1
 Node,363,LAB_FLR_4 ZN REHEAT COIL OUTLET WATER NODE,Water,1
 Node,364,CAV_KITCHEN MAIN HTG COIL INLET WATER NODE,Water,2
 Node,365,CAV_KITCHEN MAIN HTG COIL OUTLET WATER NODE,Water,1
 Node,366,ER_EXAM3_MULT4_FLR_1 WATER HTG COIL INLET WATER NODE,Water,2
 Node,367,ER_EXAM3_MULT4_FLR_1 WATER HTG COIL OUTLET WATER NODE,Water,1
 Node,368,OR2_MULT5_FLR_2 WATER HTG COIL INLET WATER NODE,Water,2
 Node,369,OR2_MULT5_FLR_2 WATER HTG COIL OUTLET WATER NODE,Water,1
 Node,370,ICU_FLR_2 WATER HTG COIL INLET WATER NODE,Water,2
 Node,371,ICU_FLR_2 WATER HTG COIL OUTLET WATER NODE,Water,1
 Node,372,PATROOM5_MULT10_FLR_4 WATER HTG COIL INLET WATER NODE,Water,2
 Node,373,PATROOM5_MULT10_FLR_4 WATER HTG COIL OUTLET WATER NODE,Water,1
 Node,374,LAB_FLR_3 WATER HTG COIL INLET WATER NODE,Water,2
 Node,375,LAB_FLR_3 WATER HTG COIL OUTLET WATER NODE,Water,1
 Node,376,HOT WATER LOOP DEMAND BYPASS PIPE INLET NODE,Water,1
 Node,377,HOT WATER LOOP DEMAND BYPASS PIPE OUTLET NODE,Water,1
 Node,378,HOT WATER LOOP DEMAND OUTLET INLET WATER NODE,Water,1
 Node,379,HOT WATER LOOP DEMAND OUTLET NODE,Water,2
 Node,380,LAUNDRY SERVICE WATER LOOP SUPPLY INLET NODE,Water,2
 Node,381,LAUNDRY SERVICE WATER LOOP WATER MAINS PRESSURE DRIVEN OUTLET WATER NODE,Water,1
 Node,382,300GAL NATURAL GAS WATER HEATER - 300KBTU/HR 0.804 THERM EFF SUPPLY INLET WATER NODE,Water,1
 Node,383,300GAL NATURAL GAS WATER HEATER - 300KBTU/HR 0.804 THERM EFF SUPPLY OUTLET WATER NODE,Water,1
 Node,384,PIPE ADIABATIC 10 INLET WATER NODE,Water,1
 Node,385,PIPE ADIABATIC 10 OUTLET WATER NODE,Water,1
 Node,386,PIPE ADIABATIC 12 INLET WATER NODE,Water,1
 Node,387,LAUNDRY SERVICE WATER LOOP SUPPLY OUTLET NODE,Water,4
 Node,388,LAUNDRY SERVICE WATER LOOP DEMAND INLET NODE,Water,2
 Node,389,LAUNDRY SERVICE WATER LOOP DEMAND INLET PIPE NODE,Water,1
 Node,390,PIPE ADIABATIC 11 INLET WATER NODE,Water,1
 Node,391,PIPE ADIABATIC 11 OUTLET WATER NODE,Water,1
 Node,392,LAUNDRY WUC 2.8GPM AT 180F INLET WATER NODE,Water,1
 Node,393,LAUNDRY WUC 2.8GPM AT 180F OUTLET WATER NODE,Water,1
 Node,394,LAUNDRY SERVICE WATER LOOP DEMAND BYPASS PIPE INLET NODE,Water,1
 Node,395,LAUNDRY SERVICE WATER LOOP DEMAND BYPASS PIPE OUTLET NODE,Water,1
 Node,396,PIPE ADIABATIC 13 INLET WATER NODE,Water,1
 Node,397,LAUNDRY SERVICE WATER LOOP DEMAND OUTLET NODE,Water,2
 Node,398,MAIN SERVICE WATER LOOP SUPPLY INLET NODE,Water,2
 Node,399,MAIN SERVICE WATER LOOP CIRCULATOR PUMP OUTLET WATER NODE,Water,1
 Node,400,600GAL NATURAL GAS WATER HEATER - 600KBTU/HR 0.803 THERM EFF SUPPLY INLET WATER NODE,Water,1
 Node,401,600GAL NATURAL GAS WATER HEATER - 600KBTU/HR 0.803 THERM EFF SUPPLY OUTLET WATER NODE,Water,1
 Node,402,PIPE ADIABATIC 1 INLET WATER NODE,Water,1
 Node,403,PIPE ADIABATIC 1 OUTLET WATER NODE,Water,1
 Node,404,PIPE ADIABATIC 3 INLET WATER NODE,Water,1
 Node,405,MAIN SERVICE WATER LOOP SUPPLY OUTLET NODE,Water,4
 Node,406,MAIN SERVICE WATER LOOP DEMAND INLET NODE,Water,2
 Node,407,MAIN SERVICE WATER LOOP DEMAND INLET PIPE NODE,Water,1
 Node,408,PIPE ADIABATIC 2 INLET WATER NODE,Water,1
 Node,409,PIPE ADIABATIC 2 OUTLET WATER NODE,Water,1
 Node,410,MAIN WUC 7.63GPM AT 140F INLET WATER NODE,Water,1
 Node,411,MAIN WUC 7.63GPM AT 140F OUTLET WATER NODE,Water,1
 Node,412,HX FOR BOOSTER WATER HEATING DEMAND INLET WATER NODE,Water,1
 Node,413,MAINS WATER MAKEUP FOR SWH BOOSTER INLET WATER NODE,Water,3
 Node,414,MAINS WATER MAKEUP FOR SWH BOOSTER OUTLET WATER NODE,Water,1
 Node,415,MAIN SERVICE WATER LOOP DEMAND BYPASS PIPE INLET NODE,Water,1
 Node,416,MAIN SERVICE WATER LOOP DEMAND BYPASS PIPE OUTLET NODE,Water,1
 Node,417,PIPE ADIABATIC 4 INLET WATER NODE,Water,1
 Node,418,MAIN SERVICE WATER LOOP DEMAND OUTLET NODE,Water,2
 Node,419,SERVICE WATER LOOP SUPPLY INLET NODE,Water,2
 Node,420,BOOSTER WATER LOOP PUMP INLET WATER NODE,Water,3
 Node,421,BOOSTER WATER LOOP PUMP OUTLET WATER NODE,Water,1
 Node,422,6.0GAL ELECTRICITY BOOSTER WATER HEATER - 10KBTU/HR 1.0 THERM EFF SUPPLY INLET WATER NODE,Water,1
 Node,423,6.0GAL ELECTRICITY BOOSTER WATER HEATER - 10KBTU/HR 1.0 THERM EFF SUPPLY OUTLET WATER NODE,Water,1
 Node,424,PIPE ADIABATIC 5 INLET WATER NODE,Water,1
 Node,425,PIPE ADIABATIC 5 OUTLET WATER NODE,Water,1
 Node,426,PIPE ADIABATIC 7 INLET WATER NODE,Water,1
 Node,427,SERVICE WATER LOOP SUPPLY OUTLET NODE,Water,5
 Node,428,SERVICE WATER LOOP DEMAND INLET NODE,Water,2
 Node,429,PIPE ADIABATIC 8 OUTLET WATER NODE,Water,1
 Node,430,PIPE ADIABATIC 6 INLET WATER NODE,Water,1
 Node,431,PIPE ADIABATIC 6 OUTLET WATER NODE,Water,1
 Node,432,WATER USE CONNECTIONS 1 INLET WATER NODE,Water,1
 Node,433,WATER USE CONNECTIONS 1 OUTLET WATER NODE,Water,1
 Node,434,SERVICE WATER LOOP DEMAND BYPASS PIPE INLET NODE,Water,1
 Node,435,SERVICE WATER LOOP DEMAND BYPASS PIPE OUTLET NODE,Water,1
 Node,436,PIPE ADIABATIC 9 INLET WATER NODE,Water,1
 Node,437,SERVICE WATER LOOP DEMAND OUTLET NODE,Water,2
 Node,438,BASEMENT ZN ZONE AIR NODE,Air,0
 Node,439,CORRIDOR_FLR_1 ZN ZONE AIR NODE,Air,0
 Node,440,CORRIDOR_FLR_2 ZN ZONE AIR NODE,Air,0
 Node,441,CORRIDOR_FLR_5 ZN ZONE AIR NODE,Air,0
 Node,442,CORRIDOR_NW_FLR_3 ZN ZONE AIR NODE,Air,0
 Node,443,CORRIDOR_NW_FLR_4 ZN ZONE AIR NODE,Air,0
 Node,444,CORRIDOR_SE_FLR_3 ZN ZONE AIR NODE,Air,0
 Node,445,CORRIDOR_SE_FLR_4 ZN ZONE AIR NODE,Air,0
 Node,446,DINING_FLR_5 ZN ZONE AIR NODE,Air,0
 Node,447,ER_EXAM1_MULT4_FLR_1 ZN ZONE AIR NODE,Air,0
 Node,448,ER_EXAM3_MULT4_FLR_1 ZN ZONE AIR NODE,Air,1
 Node,449,ER_NURSESTN_LOBBY_FLR_1 ZN ZONE AIR NODE,Air,0
 Node,450,ER_TRAUMA1_FLR_1 ZN ZONE AIR NODE,Air,0
 Node,451,ER_TRAUMA2_FLR_1 ZN ZONE AIR NODE,Air,0
 Node,452,ER_TRIAGE_MULT4_FLR_1 ZN ZONE AIR NODE,Air,0
 Node,453,ICU_FLR_2 ZN ZONE AIR NODE,Air,1
 Node,454,ICU_NURSESTN_LOBBY_FLR_2 ZN ZONE AIR NODE,Air,0
 Node,455,IC_PATROOM1_MULT5_FLR_2 ZN ZONE AIR NODE,Air,0
 Node,456,IC_PATROOM2_FLR_2 ZN ZONE AIR NODE,Air,0
 Node,457,IC_PATROOM3_MULT6_FLR_2 ZN ZONE AIR NODE,Air,0
 Node,458,KITCHEN_FLR_5 ZN ZONE AIR NODE,Air,0
 Node,459,LAB_FLR_3 ZN ZONE AIR NODE,Air,1
 Node,460,LAB_FLR_4 ZN ZONE AIR NODE,Air,0
 Node,461,LOBBY_RECORDS_FLR_1 ZN ZONE AIR NODE,Air,0
 Node,462,NURSESTN_LOBBY_FLR_3 ZN ZONE AIR NODE,Air,0
 Node,463,NURSESTN_LOBBY_FLR_4 ZN ZONE AIR NODE,Air,0
 Node,464,NURSESTN_LOBBY_FLR_5 ZN ZONE AIR NODE,Air,0
 Node,465,OFFICE1_FLR_5 ZN ZONE AIR NODE,Air,0
 Node,466,OFFICE1_MULT4_FLR_1 ZN ZONE AIR NODE,Air,0
 Node,467,OFFICE2_MULT5_FLR_5 ZN ZONE AIR NODE,Air,0
 Node,468,OFFICE3_FLR_5 ZN ZONE AIR NODE,Air,0
 Node,469,OFFICE4_MULT6_FLR_5 ZN ZONE AIR NODE,Air,0
 Node,470,OR1_FLR_2 ZN ZONE AIR NODE,Air,0
 Node,471,OR2_MULT5_FLR_2 ZN ZONE AIR NODE,Air,1
 Node,472,OR3_FLR_2 ZN ZONE AIR NODE,Air,0
 Node,473,OR4_FLR_2 ZN ZONE AIR NODE,Air,0
 Node,474,OR_NURSESTN_LOBBY_FLR_2 ZN ZONE AIR NODE,Air,0
 Node,475,PATROOM1_MULT10_FLR_3 ZN ZONE AIR NODE,Air,0
 Node,476,PATROOM1_MULT10_FLR_4 ZN ZONE AIR NODE,Air,0
 Node,477,PATROOM2_FLR_3 ZN ZONE AIR NODE,Air,0
 Node,478,PATROOM2_FLR_4 ZN ZONE AIR NODE,Air,0
 Node,479,PATROOM3_MULT10_FLR_3 ZN ZONE AIR NODE,Air,0
 Node,480,PATROOM3_MULT10_FLR_4 ZN ZONE AIR NODE,Air,0
 Node,481,PATROOM4_FLR_3 ZN ZONE AIR NODE,Air,0
 Node,482,PATROOM4_FLR_4 ZN ZONE AIR NODE,Air,0
 Node,483,PATROOM5_MULT10_FLR_3 ZN ZONE AIR NODE,Air,0
 Node,484,PATROOM5_MULT10_FLR_4 ZN ZONE AIR NODE,Air,1
 Node,485,PATROOM6_FLR_3 ZN ZONE AIR NODE,Air,0
 Node,486,PATROOM6_FLR_4 ZN ZONE AIR NODE,Air,0
 Node,487,PATROOM7_MULT10_FLR_3 ZN ZONE AIR NODE,Air,0
 Node,488,PATROOM7_MULT10_FLR_4 ZN ZONE AIR NODE,Air,0
 Node,489,PATROOM8_FLR_3 ZN ZONE AIR NODE,Air,0
 Node,490,PATROOM8_FLR_4 ZN ZONE AIR NODE,Air,0
 Node,491,PHYSTHERAPY_FLR_3 ZN ZONE AIR NODE,Air,0
 Node,492,RADIOLOGY_FLR_4 ZN ZONE AIR NODE,Air,0
 Node,493,CAV_KITCHEN DEMAND OUTLET NODE,Air,2
 Node,494,VAV_1 DEMAND OUTLET NODE,Air,2
 Node,495,VAV_2 DEMAND OUTLET NODE,Air,2
 Node,496,VAV_ER DEMAND OUTLET NODE,Air,2
 Node,497,VAV_ICU DEMAND OUTLET NODE,Air,2
 Node,498,VAV_LABS DEMAND OUTLET NODE,Air,2
 Node,499,VAV_OR DEMAND OUTLET NODE,Air,2
 Node,500,VAV_PATRMS DEMAND OUTLET NODE,Air,2
 Node,501,CAV_KITCHEN OUTDOOR AIR NODE,Air,2
 Node,502,VAV_1 OUTDOOR AIR NODE,Air,2
 Node,503,VAV_2 OUTDOOR AIR NODE,Air,2
 Node,504,VAV_ER OUTDOOR AIR NODE,Air,2
 Node,505,VAV_ICU OUTDOOR AIR NODE,Air,2
 Node,506,VAV_LABS OUTDOOR AIR NODE,Air,2
 Node,507,VAV_OR OUTDOOR AIR NODE,Air,2
 Node,508,VAV_PATRMS OUTDOOR AIR NODE,Air,2
 Node,509,MODEL OUTDOOR AIR NODE,Air,0
 Node,510,KITCHEN_FLR_5 ZN CAV TERMINAL INLET AIR NODE,Air,1
 Node,511,BASEMENT ZN VAV TERMINAL INLET AIR NODE,Air,1
 Node,512,OFFICE1_MULT4_FLR_1 ZN VAV TERMINAL INLET AIR NODE,Air,1
 Node,513,LOBBY_RECORDS_FLR_1 ZN VAV TERMINAL INLET AIR NODE,Air,1
 Node,514,CORRIDOR_FLR_1 ZN VAV TERMINAL INLET AIR NODE,Air,1
 Node,515,ER_NURSESTN_LOBBY_FLR_1 ZN VAV TERMINAL INLET AIR NODE,Air,1
 Node,516,ICU_NURSESTN_LOBBY_FLR_2 ZN VAV TERMINAL INLET AIR NODE,Air,1
 Node,517,CORRIDOR_FLR_2 ZN VAV TERMINAL INLET AIR NODE,Air,1
 Node,518,OR_NURSESTN_LOBBY_FLR_2 ZN VAV TERMINAL INLET AIR NODE,Air,1
 Node,519,PHYSTHERAPY_FLR_3 ZN VAV TERMINAL INLET AIR NODE,Air,1
 Node,520,NURSESTN_LOBBY_FLR_3 ZN VAV TERMINAL INLET AIR NODE,Air,1
 Node,521,CORRIDOR_SE_FLR_3 ZN VAV TERMINAL INLET AIR NODE,Air,1
 Node,522,CORRIDOR_NW_FLR_3 ZN VAV TERMINAL INLET AIR NODE,Air,1
 Node,523,RADIOLOGY_FLR_4 ZN VAV TERMINAL INLET AIR NODE,Air,1
 Node,524,NURSESTN_LOBBY_FLR_4 ZN VAV TERMINAL INLET AIR NODE,Air,1
 Node,525,CORRIDOR_SE_FLR_4 ZN VAV TERMINAL INLET AIR NODE,Air,1
 Node,526,CORRIDOR_NW_FLR_4 ZN VAV TERMINAL INLET AIR NODE,Air,1
 Node,527,DINING_FLR_5 ZN VAV TERMINAL INLET AIR NODE,Air,1
 Node,528,NURSESTN_LOBBY_FLR_5 ZN VAV TERMINAL INLET AIR NODE,Air,1
 Node,529,OFFICE1_FLR_5 ZN VAV TERMINAL INLET AIR NODE,Air,1
 Node,530,OFFICE2_MULT5_FLR_5 ZN VAV TERMINAL INLET AIR NODE,Air,1
 Node,531,OFFICE3_FLR_5 ZN VAV TERMINAL INLET AIR NODE,Air,1
 Node,532,OFFICE4_MULT6_FLR_5 ZN VAV TERMINAL INLET AIR NODE,Air,1
 Node,533,CORRIDOR_FLR_5 ZN VAV TERMINAL INLET AIR NODE,Air,1
 Node,534,ER_EXAM1_MULT4_FLR_1 ZN VAV TERMINAL INLET AIR NODE,Air,1
 Node,535,ER_TRAUMA1_FLR_1 ZN VAV TERMINAL INLET AIR NODE,Air,1
 Node,536,ER_EXAM3_MULT4_FLR_1 ZN VAV TERMINAL INLET AIR NODE,Air,1
 Node,537,ER_TRAUMA2_FLR_1 ZN VAV TERMINAL INLET AIR NODE,Air,1
 Node,538,ER_TRIAGE_MULT4_FLR_1 ZN VAV TERMINAL INLET AIR NODE,Air,1
 Node,539,IC_PATROOM1_MULT5_FLR_2 ZN VAV TERMINAL INLET AIR NODE,Air,1
 Node,540,IC_PATROOM2_FLR_2 ZN VAV TERMINAL INLET AIR NODE,Air,1
 Node,541,IC_PATROOM3_MULT6_FLR_2 ZN VAV TERMINAL INLET AIR NODE,Air,1
 Node,542,ICU_FLR_2 ZN VAV TERMINAL INLET AIR NODE,Air,1
 Node,543,LAB_FLR_3 ZN VAV TERMINAL INLET AIR NODE,Air,1
 Node,544,LAB_FLR_4 ZN VAV TERMINAL INLET AIR NODE,Air,1
 Node,545,OR1_FLR_2 ZN VAV TERMINAL INLET AIR NODE,Air,1
 Node,546,OR2_MULT5_FLR_2 ZN VAV TERMINAL INLET AIR NODE,Air,1
 Node,547,OR3_FLR_2 ZN VAV TERMINAL INLET AIR NODE,Air,1
 Node,548,OR4_FLR_2 ZN VAV TERMINAL INLET AIR NODE,Air,1
 Node,549,PATROOM1_MULT10_FLR_3 ZN VAV TERMINAL INLET AIR NODE,Air,1
 Node,550,PATROOM2_FLR_3 ZN VAV TERMINAL INLET AIR NODE,Air,1
 Node,551,PATROOM3_MULT10_FLR_3 ZN VAV TERMINAL INLET AIR NODE,Air,1
 Node,552,PATROOM4_FLR_3 ZN VAV TERMINAL INLET AIR NODE,Air,1
 Node,553,PATROOM5_MULT10_FLR_3 ZN VAV TERMINAL INLET AIR NODE,Air,1
 Node,554,PATROOM6_FLR_3 ZN VAV TERMINAL INLET AIR NODE,Air,1
 Node,555,PATROOM7_MULT10_FLR_3 ZN VAV TERMINAL INLET AIR NODE,Air,1
 Node,556,PATROOM8_FLR_3 ZN VAV TERMINAL INLET AIR NODE,Air,1
 Node,557,PATROOM1_MULT10_FLR_4 ZN VAV TERMINAL INLET AIR NODE,Air,1
 Node,558,PATROOM2_FLR_4 ZN VAV TERMINAL INLET AIR NODE,Air,1
 Node,559,PATROOM3_MULT10_FLR_4 ZN VAV TERMINAL INLET AIR NODE,Air,1
 Node,560,PATROOM4_FLR_4 ZN VAV TERMINAL INLET AIR NODE,Air,1
 Node,561,PATROOM5_MULT10_FLR_4 ZN VAV TERMINAL INLET AIR NODE,Air,1
 Node,562,PATROOM6_FLR_4 ZN VAV TERMINAL INLET AIR NODE,Air,1
 Node,563,PATROOM7_MULT10_FLR_4 ZN VAV TERMINAL INLET AIR NODE,Air,1
 Node,564,PATROOM8_FLR_4 ZN VAV TERMINAL INLET AIR NODE,Air,1
 Node,565,BASEMENT ZN VAV TERMINAL DAMPER OUTLET,Air,1
 Node,566,CORRIDOR_FLR_1 ZN VAV TERMINAL DAMPER OUTLET,Air,1
 Node,567,CORRIDOR_FLR_2 ZN VAV TERMINAL DAMPER OUTLET,Air,1
 Node,568,CORRIDOR_FLR_5 ZN VAV TERMINAL DAMPER OUTLET,Air,1
 Node,569,CORRIDOR_NW_FLR_3 ZN VAV TERMINAL DAMPER OUTLET,Air,1
 Node,570,CORRIDOR_NW_FLR_4 ZN VAV TERMINAL DAMPER OUTLET,Air,1
 Node,571,CORRIDOR_SE_FLR_3 ZN VAV TERMINAL DAMPER OUTLET,Air,1
 Node,572,CORRIDOR_SE_FLR_4 ZN VAV TERMINAL DAMPER OUTLET,Air,1
 Node,573,DINING_FLR_5 ZN VAV TERMINAL DAMPER OUTLET,Air,1
 Node,574,ER_EXAM1_MULT4_FLR_1 ZN VAV TERMINAL DAMPER OUTLET,Air,1
 Node,575,ER_EXAM3_MULT4_FLR_1 ZN VAV TERMINAL DAMPER OUTLET,Air,1
 Node,576,ER_NURSESTN_LOBBY_FLR_1 ZN VAV TERMINAL DAMPER OUTLET,Air,1
 Node,577,ER_TRAUMA1_FLR_1 ZN VAV TERMINAL DAMPER OUTLET,Air,1
 Node,578,ER_TRAUMA2_FLR_1 ZN VAV TERMINAL DAMPER OUTLET,Air,1
 Node,579,ER_TRIAGE_MULT4_FLR_1 ZN VAV TERMINAL DAMPER OUTLET,Air,1
 Node,580,ICU_FLR_2 ZN VAV TERMINAL DAMPER OUTLET,Air,1
 Node,581,ICU_NURSESTN_LOBBY_FLR_2 ZN VAV TERMINAL DAMPER OUTLET,Air,1
 Node,582,IC_PATROOM1_MULT5_FLR_2 ZN VAV TERMINAL DAMPER OUTLET,Air,1
 Node,583,IC_PATROOM2_FLR_2 ZN VAV TERMINAL DAMPER OUTLET,Air,1
 Node,584,IC_PATROOM3_MULT6_FLR_2 ZN VAV TERMINAL DAMPER OUTLET,Air,1
 Node,585,LAB_FLR_3 ZN VAV TERMINAL DAMPER OUTLET,Air,1
 Node,586,LAB_FLR_4 ZN VAV TERMINAL DAMPER OUTLET,Air,1
 Node,587,LOBBY_RECORDS_FLR_1 ZN VAV TERMINAL DAMPER OUTLET,Air,1
 Node,588,NURSESTN_LOBBY_FLR_3 ZN VAV TERMINAL DAMPER OUTLET,Air,1
 Node,589,NURSESTN_LOBBY_FLR_4 ZN VAV TERMINAL DAMPER OUTLET,Air,1
 Node,590,NURSESTN_LOBBY_FLR_5 ZN VAV TERMINAL DAMPER OUTLET,Air,1
 Node,591,OFFICE1_FLR_5 ZN VAV TERMINAL DAMPER OUTLET,Air,1
 Node,592,OFFICE1_MULT4_FLR_1 ZN VAV TERMINAL DAMPER OUTLET,Air,1
 Node,593,OFFICE2_MULT5_FLR_5 ZN VAV TERMINAL DAMPER OUTLET,Air,1
 Node,594,OFFICE3_FLR_5 ZN VAV TERMINAL DAMPER OUTLET,Air,1
 Node,595,OFFICE4_MULT6_FLR_5 ZN VAV TERMINAL DAMPER OUTLET,Air,1
 Node,596,OR1_FLR_2 ZN VAV TERMINAL DAMPER OUTLET,Air,1
 Node,597,OR2_MULT5_FLR_2 ZN VAV TERMINAL DAMPER OUTLET,Air,1
 Node,598,OR3_FLR_2 ZN VAV TERMINAL DAMPER OUTLET,Air,1
 Node,599,OR4_FLR_2 ZN VAV TERMINAL DAMPER OUTLET,Air,1
 Node,600,OR_NURSESTN_LOBBY_FLR_2 ZN VAV TERMINAL DAMPER OUTLET,Air,1
 Node,601,PATROOM1_MULT10_FLR_3 ZN VAV TERMINAL DAMPER OUTLET,Air,1
 Node,602,PATROOM1_MULT10_FLR_4 ZN VAV TERMINAL DAMPER OUTLET,Air,1
 Node,603,PATROOM2_FLR_3 ZN VAV TERMINAL DAMPER OUTLET,Air,1
 Node,604,PATROOM2_FLR_4 ZN VAV TERMINAL DAMPER OUTLET,Air,1
 Node,605,PATROOM3_MULT10_FLR_3 ZN VAV TERMINAL DAMPER OUTLET,Air,1
 Node,606,PATROOM3_MULT10_FLR_4 ZN VAV TERMINAL DAMPER OUTLET,Air,1
 Node,607,PATROOM4_FLR_3 ZN VAV TERMINAL DAMPER OUTLET,Air,1
 Node,608,PATROOM4_FLR_4 ZN VAV TERMINAL DAMPER OUTLET,Air,1
 Node,609,PATROOM5_MULT10_FLR_3 ZN VAV TERMINAL DAMPER OUTLET,Air,1
 Node,610,PATROOM5_MULT10_FLR_4 ZN VAV TERMINAL DAMPER OUTLET,Air,1
 Node,611,PATROOM6_FLR_3 ZN VAV TERMINAL DAMPER OUTLET,Air,1
 Node,612,PATROOM6_FLR_4 ZN VAV TERMINAL DAMPER OUTLET,Air,1
 Node,613,PATROOM7_MULT10_FLR_3 ZN VAV TERMINAL DAMPER OUTLET,Air,1
 Node,614,PATROOM7_MULT10_FLR_4 ZN VAV TERMINAL DAMPER OUTLET,Air,1
 Node,615,PATROOM8_FLR_3 ZN VAV TERMINAL DAMPER OUTLET,Air,1
 Node,616,PATROOM8_FLR_4 ZN VAV TERMINAL DAMPER OUTLET,Air,1
 Node,617,PHYSTHERAPY_FLR_3 ZN VAV TERMINAL DAMPER OUTLET,Air,1
 Node,618,RADIOLOGY_FLR_4 ZN VAV TERMINAL DAMPER OUTLET,Air,1
 Node,619,KITCHEN_FLR_5 ZN EXHAUST FAN OUTLET AIR NODE,Air,0
 Node,620,CAV_KITCHEN RELIEF AIR NODE,Air,1
 Node,621,VAV_1 RELIEF AIR NODE,Air,1
 Node,622,VAV_2 RELIEF AIR NODE,Air,1
 Node,623,VAV_ER RELIEF AIR NODE,Air,1
 Node,624,VAV_ICU RELIEF AIR NODE,Air,1
 Node,625,VAV_LABS RELIEF AIR NODE,Air,1
 Node,626,VAV_OR RELIEF AIR NODE,Air,1
 Node,627,VAV_PATRMS RELIEF AIR NODE,Air,1
! ===============================================================
! Suspicious nodes have 0 references.  It is normal for some nodes, however.
! Listing nodes with 0 references (culled from previous list):
! <Suspicious Node>,<NodeNumber>,<Node Name>,<Node Fluid Type>,<# Times Node Referenced After Definition>
 Suspicious Node,438,BASEMENT ZN ZONE AIR NODE,Air,0
 Suspicious Node,439,CORRIDOR_FLR_1 ZN ZONE AIR NODE,Air,0
 Suspicious Node,440,CORRIDOR_FLR_2 ZN ZONE AIR NODE,Air,0
 Suspicious Node,441,CORRIDOR_FLR_5 ZN ZONE AIR NODE,Air,0
 Suspicious Node,442,CORRIDOR_NW_FLR_3 ZN ZONE AIR NODE,Air,0
 Suspicious Node,443,CORRIDOR_NW_FLR_4 ZN ZONE AIR NODE,Air,0
 Suspicious Node,444,CORRIDOR_SE_FLR_3 ZN ZONE AIR NODE,Air,0
 Suspicious Node,445,CORRIDOR_SE_FLR_4 ZN ZONE AIR NODE,Air,0
 Suspicious Node,446,DINING_FLR_5 ZN ZONE AIR NODE,Air,0
 Suspicious Node,447,ER_EXAM1_MULT4_FLR_1 ZN ZONE AIR NODE,Air,0
 Suspicious Node,449,ER_NURSESTN_LOBBY_FLR_1 ZN ZONE AIR NODE,Air,0
 Suspicious Node,450,ER_TRAUMA1_FLR_1 ZN ZONE AIR NODE,Air,0
 Suspicious Node,451,ER_TRAUMA2_FLR_1 ZN ZONE AIR NODE,Air,0
 Suspicious Node,452,ER_TRIAGE_MULT4_FLR_1 ZN ZONE AIR NODE,Air,0
 Suspicious Node,454,ICU_NURSESTN_LOBBY_FLR_2 ZN ZONE AIR NODE,Air,0
 Suspicious Node,455,IC_PATROOM1_MULT5_FLR_2 ZN ZONE AIR NODE,Air,0
 Suspicious Node,456,IC_PATROOM2_FLR_2 ZN ZONE AIR NODE,Air,0
 Suspicious Node,457,IC_PATROOM3_MULT6_FLR_2 ZN ZONE AIR NODE,Air,0
 Suspicious Node,458,KITCHEN_FLR_5 ZN ZONE AIR NODE,Air,0
 Suspicious Node,460,LAB_FLR_4 ZN ZONE AIR NODE,Air,0
 Suspicious Node,461,LOBBY_RECORDS_FLR_1 ZN ZONE AIR NODE,Air,0
 Suspicious Node,462,NURSESTN_LOBBY_FLR_3 ZN ZONE AIR NODE,Air,0
 Suspicious Node,463,NURSESTN_LOBBY_FLR_4 ZN ZONE AIR NODE,Air,0
 Suspicious Node,464,NURSESTN_LOBBY_FLR_5 ZN ZONE AIR NODE,Air,0
 Suspicious Node,465,OFFICE1_FLR_5 ZN ZONE AIR NODE,Air,0
 Suspicious Node,466,OFFICE1_MULT4_FLR_1 ZN ZONE AIR NODE,Air,0
 Suspicious Node,467,OFFICE2_MULT5_FLR_5 ZN ZONE AIR NODE,Air,0
 Suspicious Node,468,OFFICE3_FLR_5 ZN ZONE AIR NODE,Air,0
 Suspicious Node,469,OFFICE4_MULT6_FLR_5 ZN ZONE AIR NODE,Air,0
 Suspicious Node,470,OR1_FLR_2 ZN ZONE AIR NODE,Air,0
 Suspicious Node,472,OR3_FLR_2 ZN ZONE AIR NODE,Air,0
 Suspicious Node,473,OR4_FLR_2 ZN ZONE AIR NODE,Air,0
 Suspicious Node,474,OR_NURSESTN_LOBBY_FLR_2 ZN ZONE AIR NODE,Air,0
 Suspicious Node,475,PATROOM1_MULT10_FLR_3 ZN ZONE AIR NODE,Air,0
 Suspicious Node,476,PATROOM1_MULT10_FLR_4 ZN ZONE AIR NODE,Air,0
 Suspicious Node,477,PATROOM2_FLR_3 ZN ZONE AIR NODE,Air,0
 Suspicious Node,478,PATROOM2_FLR_4 ZN ZONE AIR NODE,Air,0
 Suspicious Node,479,PATROOM3_MULT10_FLR_3 ZN ZONE AIR NODE,Air,0
 Suspicious Node,480,PATROOM3_MULT10_FLR_4 ZN ZONE AIR NODE,Air,0
 Suspicious Node,481,PATROOM4_FLR_3 ZN ZONE AIR NODE,Air,0
 Suspicious Node,482,PATROOM4_FLR_4 ZN ZONE AIR NODE,Air,0
 Suspicious Node,483,PATROOM5_MULT10_FLR_3 ZN ZONE AIR NODE,Air,0
 Suspicious Node,485,PATROOM6_FLR_3 ZN ZONE AIR NODE,Air,0
 Suspicious Node,486,PATROOM6_FLR_4 ZN ZONE AIR NODE,Air,0
 Suspicious Node,487,PATROOM7_MULT10_FLR_3 ZN ZONE AIR NODE,Air,0
 Suspicious Node,488,PATROOM7_MULT10_FLR_4 ZN ZONE AIR NODE,Air,0
 Suspicious Node,489,PATROOM8_FLR_3 ZN ZONE AIR NODE,Air,0
 Suspicious Node,490,PATROOM8_FLR_4 ZN ZONE AIR NODE,Air,0
 Suspicious Node,491,PHYSTHERAPY_FLR_3 ZN ZONE AIR NODE,Air,0
 Suspicious Node,492,RADIOLOGY_FLR_4 ZN ZONE AIR NODE,Air,0
 Suspicious Node,509,MODEL OUTDOOR AIR NODE,Air,0
 Suspicious Node,619,KITCHEN_FLR_5 ZN EXHAUST FAN OUTLET AIR NODE,Air,0
! ===============================================================
! <#Branch Lists>,<Number of Branch Lists>
 #Branch Lists,20
! <Branch List>,<Branch List Count>,<Branch List Name>,<Loop Name>,<Loop Type>,<Number of Branches>
! <Branch>,<Branch Count>,<Branch Name>,<Loop Name>,<Loop Type>,<Branch Inlet Node Name>,<Branch Outlet Node Name>
 Branch List,1,CAV_KITCHEN SUPPLY BRANCHES,CAV_KITCHEN,Air,1
   Branch,1,CAV_KITCHEN MAIN BRANCH,CAV_KITCHEN,Air,CAV_KITCHEN SUPPLY INLET NODE,CAV_KITCHEN SUPPLY OUTLET NODE
 Branch List,2,VAV_1 SUPPLY BRANCHES,VAV_1,Air,1
   Branch,1,VAV_1 MAIN BRANCH,VAV_1,Air,VAV_1 SUPPLY INLET NODE,VAV_1 SUPPLY OUTLET NODE
 Branch List,3,VAV_2 SUPPLY BRANCHES,VAV_2,Air,1
   Branch,1,VAV_2 MAIN BRANCH,VAV_2,Air,VAV_2 SUPPLY INLET NODE,VAV_2 SUPPLY OUTLET NODE
 Branch List,4,VAV_ER SUPPLY BRANCHES,VAV_ER,Air,1
   Branch,1,VAV_ER MAIN BRANCH,VAV_ER,Air,VAV_ER SUPPLY INLET NODE,VAV_ER SUPPLY OUTLET NODE
 Branch List,5,VAV_ICU SUPPLY BRANCHES,VAV_ICU,Air,1
   Branch,1,VAV_ICU MAIN BRANCH,VAV_ICU,Air,VAV_ICU SUPPLY INLET NODE,VAV_ICU SUPPLY OUTLET NODE
 Branch List,6,VAV_LABS SUPPLY BRANCHES,VAV_LABS,Air,1
   Branch,1,VAV_LABS MAIN BRANCH,VAV_LABS,Air,VAV_LABS SUPPLY INLET NODE,VAV_LABS SUPPLY OUTLET NODE
 Branch List,7,VAV_OR SUPPLY BRANCHES,VAV_OR,Air,1
   Branch,1,VAV_OR MAIN BRANCH,VAV_OR,Air,VAV_OR SUPPLY INLET NODE,VAV_OR SUPPLY OUTLET NODE
 Branch List,8,VAV_PATRMS SUPPLY BRANCHES,VAV_PATRMS,Air,1
   Branch,1,VAV_PATRMS MAIN BRANCH,VAV_PATRMS,Air,VAV_PATRMS SUPPLY INLET NODE,VAV_PATRMS SUPPLY OUTLET NODE
 Branch List,9,CHILLED WATER LOOP SUPPLY BRANCHES,CHILLED WATER LOOP,Plant Supply,5
   Branch,1,CHILLED WATER LOOP SUPPLY INLET BRANCH,CHILLED WATER LOOP,Plant Supply,CHILLED WATER LOOP SUPPLY INLET NODE,CHILLED WATER LOOP PRIMARY PUMP OUTLET WATER NODE
   Branch,2,CHILLED WATER LOOP SUPPLY BRANCH 1,CHILLED WATER LOOP,Plant Supply,90.1-2010 WATERCOOLED  CENTRIFUGAL CHILLER 0 189TONS 0.6KW/TON SUPPLY INLET WATER NODE,90.1-2010 WATERCOOLED  CENTRIFUGAL CHILLER 0 189TONS 0.6KW/TON SUPPLY OUTLET WATER NODE
   Branch,3,CHILLED WATER LOOP SUPPLY BRANCH 2,CHILLED WATER LOOP,Plant Supply,90.1-2010 WATERCOOLED  CENTRIFUGAL CHILLER 1 189TONS 0.6KW/TON SUPPLY INLET WATER NODE,90.1-2010 WATERCOOLED  CENTRIFUGAL CHILLER 1 189TONS 0.6KW/TON SUPPLY OUTLET WATER NODE
   Branch,4,CHILLED WATER LOOP SUPPLY BRANCH 3,CHILLED WATER LOOP,Plant Supply,CHILLED WATER LOOP CHILLER BYPASS INLET WATER NODE,CHILLED WATER LOOP CHILLER BYPASS OUTLET WATER NODE
   Branch,5,CHILLED WATER LOOP SUPPLY OUTLET BRANCH,CHILLED WATER LOOP,Plant Supply,CHILLED WATER LOOP SUPPLY OUTLET INLET WATER NODE,CHILLED WATER LOOP SUPPLY OUTLET NODE
 Branch List,10,CHILLED WATER LOOP DEMAND BRANCHES,CHILLED WATER LOOP,Plant Demand,12
   Branch,1,CHILLED WATER LOOP DEMAND INLET BRANCH,CHILLED WATER LOOP,Plant Demand,CHILLED WATER LOOP DEMAND INLET NODE,CHILLED WATER LOOP SECONDARY PUMP OUTLET WATER NODE
   Branch,2,CHILLED WATER LOOP DEMAND BRANCH 1,CHILLED WATER LOOP,Plant Demand,CHILLED WATER LOOP COIL BYPASS INLET WATER NODE,CHILLED WATER LOOP COIL BYPASS OUTLET WATER NODE
   Branch,3,CHILLED WATER LOOP DEMAND BRANCH 2,CHILLED WATER LOOP,Plant Demand,VAV_1 CLG COIL INLET WATER NODE,VAV_1 CLG COIL OUTLET WATER NODE
   Branch,4,CHILLED WATER LOOP DEMAND BRANCH 3,CHILLED WATER LOOP,Plant Demand,VAV_ER CLG COIL INLET WATER NODE,VAV_ER CLG COIL OUTLET WATER NODE
   Branch,5,CHILLED WATER LOOP DEMAND BRANCH 4,CHILLED WATER LOOP,Plant Demand,VAV_OR CLG COIL INLET WATER NODE,VAV_OR CLG COIL OUTLET WATER NODE
   Branch,6,CHILLED WATER LOOP DEMAND BRANCH 5,CHILLED WATER LOOP,Plant Demand,VAV_ICU CLG COIL INLET WATER NODE,VAV_ICU CLG COIL OUTLET WATER NODE
   Branch,7,CHILLED WATER LOOP DEMAND BRANCH 6,CHILLED WATER LOOP,Plant Demand,VAV_PATRMS CLG COIL INLET WATER NODE,VAV_PATRMS CLG COIL OUTLET WATER NODE
   Branch,8,CHILLED WATER LOOP DEMAND BRANCH 7,CHILLED WATER LOOP,Plant Demand,VAV_2 CLG COIL INLET WATER NODE,VAV_2 CLG COIL OUTLET WATER NODE
   Branch,9,CHILLED WATER LOOP DEMAND BRANCH 8,CHILLED WATER LOOP,Plant Demand,VAV_LABS CLG COIL INLET WATER NODE,VAV_LABS CLG COIL OUTLET WATER NODE
   Branch,10,CHILLED WATER LOOP DEMAND BRANCH 9,CHILLED WATER LOOP,Plant Demand,CAV_KITCHEN CLG COIL INLET WATER NODE,CAV_KITCHEN CLG COIL OUTLET WATER NODE
   Branch,11,CHILLED WATER LOOP DEMAND BYPASS BRANCH,CHILLED WATER LOOP,Plant Demand,CHILLED WATER LOOP DEMAND BYPASS PIPE INLET NODE,CHILLED WATER LOOP DEMAND BYPASS PIPE OUTLET NODE
   Branch,12,CHILLED WATER LOOP DEMAND OUTLET BRANCH,CHILLED WATER LOOP,Plant Demand,CHILLED WATER LOOP DEMAND OUTLET INLET WATER NODE,CHILLED WATER LOOP DEMAND OUTLET NODE
 Branch List,11,CONDENSER WATER LOOP SUPPLY BRANCHES,CONDENSER WATER LOOP,Plant Supply,4
   Branch,1,CONDENSER WATER LOOP SUPPLY INLET BRANCH,CONDENSER WATER LOOP,Plant Supply,CONDENSER WATER LOOP SUPPLY INLET NODE,CONDENSER WATER LOOP CONSTANT PUMP OUTLET WATER NODE
   Branch,2,CONDENSER WATER LOOP SUPPLY BRANCH 1,CONDENSER WATER LOOP,Plant Supply,CENTRIFUGAL VARIABLE SPEED FAN OPEN COOLING TOWER 38.2 GPM/HP INLET WATER NODE,CENTRIFUGAL VARIABLE SPEED FAN OPEN COOLING TOWER 38.2 GPM/HP OUTLET WATER NODE
   Branch,3,CONDENSER WATER LOOP SUPPLY BRANCH 2,CONDENSER WATER LOOP,Plant Supply,CONDENSER WATER LOOP COOLING TOWER BYPASS INLET WATER NODE,CONDENSER WATER LOOP COOLING TOWER BYPASS OUTLET WATER NODE
   Branch,4,CONDENSER WATER LOOP SUPPLY OUTLET BRANCH,CONDENSER WATER LOOP,Plant Supply,CONDENSER WATER LOOP SUPPLY OUTLET INLET WATER NODE,CONDENSER WATER LOOP SUPPLY OUTLET NODE
 Branch List,12,CONDENSER WATER LOOP DEMAND BRANCHES,CONDENSER WATER LOOP,Plant Demand,6
   Branch,1,CONDENSER WATER LOOP DEMAND INLET BRANCH,CONDENSER WATER LOOP,Plant Demand,CONDENSER WATER LOOP DEMAND INLET NODE,CONDENSER WATER LOOP DEMAND INLET OUTLET WATER NODE
   Branch,2,CONDENSER WATER LOOP DEMAND BRANCH 1,CONDENSER WATER LOOP,Plant Demand,CONDENSER WATER LOOP CHILLER BYPASS INLET WATER NODE,CONDENSER WATER LOOP CHILLER BYPASS OUTLET WATER NODE
   Branch,3,CONDENSER WATER LOOP DEMAND BRANCH 2,CONDENSER WATER LOOP,Plant Demand,90.1-2010 WATERCOOLED  CENTRIFUGAL CHILLER 0 189TONS 0.6KW/TON DEMAND INLET WATER NODE,90.1-2010 WATERCOOLED  CENTRIFUGAL CHILLER 0 189TONS 0.6KW/TON DEMAND OUTLET WATER NODE
   Branch,4,CONDENSER WATER LOOP DEMAND BRANCH 3,CONDENSER WATER LOOP,Plant Demand,90.1-2010 WATERCOOLED  CENTRIFUGAL CHILLER 1 189TONS 0.6KW/TON DEMAND INLET WATER NODE,90.1-2010 WATERCOOLED  CENTRIFUGAL CHILLER 1 189TONS 0.6KW/TON DEMAND OUTLET WATER NODE
   Branch,5,CONDENSER WATER LOOP DEMAND BYPASS BRANCH,CONDENSER WATER LOOP,Plant Demand,CONDENSER WATER LOOP DEMAND BYPASS PIPE INLET NODE,CONDENSER WATER LOOP DEMAND BYPASS PIPE OUTLET NODE
   Branch,6,CONDENSER WATER LOOP DEMAND OUTLET BRANCH,CONDENSER WATER LOOP,Plant Demand,CONDENSER WATER LOOP DEMAND OUTLET INLET WATER NODE,CONDENSER WATER LOOP DEMAND OUTLET NODE
 Branch List,13,HOT WATER LOOP SUPPLY BRANCHES,HOT WATER LOOP,Plant Supply,4
   Branch,1,HOT WATER LOOP SUPPLY INLET BRANCH,HOT WATER LOOP,Plant Supply,HOT WATER LOOP SUPPLY INLET NODE,HOT WATER LOOP PUMP OUTLET WATER NODE
   Branch,2,HOT WATER LOOP SUPPLY BRANCH 1,HOT WATER LOOP,Plant Supply,BOILER 4269KBTU/HR 0.8 THERMAL EFF INLET WATER NODE,BOILER 4269KBTU/HR 0.8 THERMAL EFF OUTLET WATER NODE
   Branch,3,HOT WATER LOOP SUPPLY BRANCH 2,HOT WATER LOOP,Plant Supply,HOT WATER LOOP SUPPLY EQUIPMENT BYPASS INLET WATER NODE,HOT WATER LOOP SUPPLY EQUIPMENT BYPASS OUTLET WATER NODE
   Branch,4,HOT WATER LOOP SUPPLY OUTLET BRANCH,HOT WATER LOOP,Plant Supply,HOT WATER LOOP SUPPLY OUTLET INLET WATER NODE,HOT WATER LOOP SUPPLY OUTLET NODE
 Branch List,14,HOT WATER LOOP DEMAND BRANCHES,HOT WATER LOOP,Plant Demand,71
   Branch,1,HOT WATER LOOP DEMAND INLET BRANCH,HOT WATER LOOP,Plant Demand,HOT WATER LOOP DEMAND INLET NODE,HOT WATER LOOP DEMAND INLET OUTLET WATER NODE
   Branch,2,HOT WATER LOOP DEMAND BRANCH 1,HOT WATER LOOP,Plant Demand,HOT WATER LOOP COIL BYPASS INLET WATER NODE,HOT WATER LOOP COIL BYPASS OUTLET WATER NODE
   Branch,3,HOT WATER LOOP DEMAND BRANCH 2,HOT WATER LOOP,Plant Demand,VAV_1 MAIN HTG COIL INLET WATER NODE,VAV_1 MAIN HTG COIL OUTLET WATER NODE
   Branch,4,HOT WATER LOOP DEMAND BRANCH 3,HOT WATER LOOP,Plant Demand,BASEMENT ZN REHEAT COIL INLET WATER NODE,BASEMENT ZN REHEAT COIL OUTLET WATER NODE
   Branch,5,HOT WATER LOOP DEMAND BRANCH 4,HOT WATER LOOP,Plant Demand,OFFICE1_MULT4_FLR_1 ZN REHEAT COIL INLET WATER NODE,OFFICE1_MULT4_FLR_1 ZN REHEAT COIL OUTLET WATER NODE
   Branch,6,HOT WATER LOOP DEMAND BRANCH 5,HOT WATER LOOP,Plant Demand,LOBBY_RECORDS_FLR_1 ZN REHEAT COIL INLET WATER NODE,LOBBY_RECORDS_FLR_1 ZN REHEAT COIL OUTLET WATER NODE
   Branch,7,HOT WATER LOOP DEMAND BRANCH 6,HOT WATER LOOP,Plant Demand,CORRIDOR_FLR_1 ZN REHEAT COIL INLET WATER NODE,CORRIDOR_FLR_1 ZN REHEAT COIL OUTLET WATER NODE
   Branch,8,HOT WATER LOOP DEMAND BRANCH 7,HOT WATER LOOP,Plant Demand,ER_NURSESTN_LOBBY_FLR_1 ZN REHEAT COIL INLET WATER NODE,ER_NURSESTN_LOBBY_FLR_1 ZN REHEAT COIL OUTLET WATER NODE
   Branch,9,HOT WATER LOOP DEMAND BRANCH 8,HOT WATER LOOP,Plant Demand,ICU_NURSESTN_LOBBY_FLR_2 ZN REHEAT COIL INLET WATER NODE,ICU_NURSESTN_LOBBY_FLR_2 ZN REHEAT COIL OUTLET WATER NODE
   Branch,10,HOT WATER LOOP DEMAND BRANCH 9,HOT WATER LOOP,Plant Demand,CORRIDOR_FLR_2 ZN REHEAT COIL INLET WATER NODE,CORRIDOR_FLR_2 ZN REHEAT COIL OUTLET WATER NODE
   Branch,11,HOT WATER LOOP DEMAND BRANCH 10,HOT WATER LOOP,Plant Demand,OR_NURSESTN_LOBBY_FLR_2 ZN REHEAT COIL INLET WATER NODE,OR_NURSESTN_LOBBY_FLR_2 ZN REHEAT COIL OUTLET WATER NODE
   Branch,12,HOT WATER LOOP DEMAND BRANCH 11,HOT WATER LOOP,Plant Demand,VAV_ER MAIN HTG COIL INLET WATER NODE,VAV_ER MAIN HTG COIL OUTLET WATER NODE
   Branch,13,HOT WATER LOOP DEMAND BRANCH 12,HOT WATER LOOP,Plant Demand,ER_EXAM1_MULT4_FLR_1 ZN REHEAT COIL INLET WATER NODE,ER_EXAM1_MULT4_FLR_1 ZN REHEAT COIL OUTLET WATER NODE
   Branch,14,HOT WATER LOOP DEMAND BRANCH 13,HOT WATER LOOP,Plant Demand,ER_TRAUMA1_FLR_1 ZN REHEAT COIL INLET WATER NODE,ER_TRAUMA1_FLR_1 ZN REHEAT COIL OUTLET WATER NODE
   Branch,15,HOT WATER LOOP DEMAND BRANCH 14,HOT WATER LOOP,Plant Demand,ER_EXAM3_MULT4_FLR_1 ZN REHEAT COIL INLET WATER NODE,ER_EXAM3_MULT4_FLR_1 ZN REHEAT COIL OUTLET WATER NODE
   Branch,16,HOT WATER LOOP DEMAND BRANCH 15,HOT WATER LOOP,Plant Demand,ER_TRAUMA2_FLR_1 ZN REHEAT COIL INLET WATER NODE,ER_TRAUMA2_FLR_1 ZN REHEAT COIL OUTLET WATER NODE
   Branch,17,HOT WATER LOOP DEMAND BRANCH 16,HOT WATER LOOP,Plant Demand,ER_TRIAGE_MULT4_FLR_1 ZN REHEAT COIL INLET WATER NODE,ER_TRIAGE_MULT4_FLR_1 ZN REHEAT COIL OUTLET WATER NODE
   Branch,18,HOT WATER LOOP DEMAND BRANCH 17,HOT WATER LOOP,Plant Demand,VAV_OR MAIN HTG COIL INLET WATER NODE,VAV_OR MAIN HTG COIL OUTLET WATER NODE
   Branch,19,HOT WATER LOOP DEMAND BRANCH 18,HOT WATER LOOP,Plant Demand,OR1_FLR_2 ZN REHEAT COIL INLET WATER NODE,OR1_FLR_2 ZN REHEAT COIL OUTLET WATER NODE
   Branch,20,HOT WATER LOOP DEMAND BRANCH 19,HOT WATER LOOP,Plant Demand,OR2_MULT5_FLR_2 ZN REHEAT COIL INLET WATER NODE,OR2_MULT5_FLR_2 ZN REHEAT COIL OUTLET WATER NODE
   Branch,21,HOT WATER LOOP DEMAND BRANCH 20,HOT WATER LOOP,Plant Demand,OR3_FLR_2 ZN REHEAT COIL INLET WATER NODE,OR3_FLR_2 ZN REHEAT COIL OUTLET WATER NODE
   Branch,22,HOT WATER LOOP DEMAND BRANCH 21,HOT WATER LOOP,Plant Demand,OR4_FLR_2 ZN REHEAT COIL INLET WATER NODE,OR4_FLR_2 ZN REHEAT COIL OUTLET WATER NODE
   Branch,23,HOT WATER LOOP DEMAND BRANCH 22,HOT WATER LOOP,Plant Demand,VAV_ICU MAIN HTG COIL INLET WATER NODE,VAV_ICU MAIN HTG COIL OUTLET WATER NODE
   Branch,24,HOT WATER LOOP DEMAND BRANCH 23,HOT WATER LOOP,Plant Demand,IC_PATROOM1_MULT5_FLR_2 ZN REHEAT COIL INLET WATER NODE,IC_PATROOM1_MULT5_FLR_2 ZN REHEAT COIL OUTLET WATER NODE
   Branch,25,HOT WATER LOOP DEMAND BRANCH 24,HOT WATER LOOP,Plant Demand,IC_PATROOM2_FLR_2 ZN REHEAT COIL INLET WATER NODE,IC_PATROOM2_FLR_2 ZN REHEAT COIL OUTLET WATER NODE
   Branch,26,HOT WATER LOOP DEMAND BRANCH 25,HOT WATER LOOP,Plant Demand,IC_PATROOM3_MULT6_FLR_2 ZN REHEAT COIL INLET WATER NODE,IC_PATROOM3_MULT6_FLR_2 ZN REHEAT COIL OUTLET WATER NODE
   Branch,27,HOT WATER LOOP DEMAND BRANCH 26,HOT WATER LOOP,Plant Demand,ICU_FLR_2 ZN REHEAT COIL INLET WATER NODE,ICU_FLR_2 ZN REHEAT COIL OUTLET WATER NODE
   Branch,28,HOT WATER LOOP DEMAND BRANCH 27,HOT WATER LOOP,Plant Demand,VAV_PATRMS MAIN HTG COIL INLET WATER NODE,VAV_PATRMS MAIN HTG COIL OUTLET WATER NODE
   Branch,29,HOT WATER LOOP DEMAND BRANCH 28,HOT WATER LOOP,Plant Demand,PATROOM1_MULT10_FLR_3 ZN REHEAT COIL INLET WATER NODE,PATROOM1_MULT10_FLR_3 ZN REHEAT COIL OUTLET WATER NODE
   Branch,30,HOT WATER LOOP DEMAND BRANCH 29,HOT WATER LOOP,Plant Demand,PATROOM2_FLR_3 ZN REHEAT COIL INLET WATER NODE,PATROOM2_FLR_3 ZN REHEAT COIL OUTLET WATER NODE
   Branch,31,HOT WATER LOOP DEMAND BRANCH 30,HOT WATER LOOP,Plant Demand,PATROOM3_MULT10_FLR_3 ZN REHEAT COIL INLET WATER NODE,PATROOM3_MULT10_FLR_3 ZN REHEAT COIL OUTLET WATER NODE
   Branch,32,HOT WATER LOOP DEMAND BRANCH 31,HOT WATER LOOP,Plant Demand,PATROOM4_FLR_3 ZN REHEAT COIL INLET WATER NODE,PATROOM4_FLR_3 ZN REHEAT COIL OUTLET WATER NODE
   Branch,33,HOT WATER LOOP DEMAND BRANCH 32,HOT WATER LOOP,Plant Demand,PATROOM5_MULT10_FLR_3 ZN REHEAT COIL INLET WATER NODE,PATROOM5_MULT10_FLR_3 ZN REHEAT COIL OUTLET WATER NODE
   Branch,34,HOT WATER LOOP DEMAND BRANCH 33,HOT WATER LOOP,Plant Demand,PATROOM6_FLR_3 ZN REHEAT COIL INLET WATER NODE,PATROOM6_FLR_3 ZN REHEAT COIL OUTLET WATER NODE
   Branch,35,HOT WATER LOOP DEMAND BRANCH 34,HOT WATER LOOP,Plant Demand,PATROOM7_MULT10_FLR_3 ZN REHEAT COIL INLET WATER NODE,PATROOM7_MULT10_FLR_3 ZN REHEAT COIL OUTLET WATER NODE
   Branch,36,HOT WATER LOOP DEMAND BRANCH 35,HOT WATER LOOP,Plant Demand,PATROOM8_FLR_3 ZN REHEAT COIL INLET WATER NODE,PATROOM8_FLR_3 ZN REHEAT COIL OUTLET WATER NODE
   Branch,37,HOT WATER LOOP DEMAND BRANCH 36,HOT WATER LOOP,Plant Demand,PATROOM1_MULT10_FLR_4 ZN REHEAT COIL INLET WATER NODE,PATROOM1_MULT10_FLR_4 ZN REHEAT COIL OUTLET WATER NODE
   Branch,38,HOT WATER LOOP DEMAND BRANCH 37,HOT WATER LOOP,Plant Demand,PATROOM2_FLR_4 ZN REHEAT COIL INLET WATER NODE,PATROOM2_FLR_4 ZN REHEAT COIL OUTLET WATER NODE
   Branch,39,HOT WATER LOOP DEMAND BRANCH 38,HOT WATER LOOP,Plant Demand,PATROOM3_MULT10_FLR_4 ZN REHEAT COIL INLET WATER NODE,PATROOM3_MULT10_FLR_4 ZN REHEAT COIL OUTLET WATER NODE
   Branch,40,HOT WATER LOOP DEMAND BRANCH 39,HOT WATER LOOP,Plant Demand,PATROOM4_FLR_4 ZN REHEAT COIL INLET WATER NODE,PATROOM4_FLR_4 ZN REHEAT COIL OUTLET WATER NODE
   Branch,41,HOT WATER LOOP DEMAND BRANCH 40,HOT WATER LOOP,Plant Demand,PATROOM5_MULT10_FLR_4 ZN REHEAT COIL INLET WATER NODE,PATROOM5_MULT10_FLR_4 ZN REHEAT COIL OUTLET WATER NODE
   Branch,42,HOT WATER LOOP DEMAND BRANCH 41,HOT WATER LOOP,Plant Demand,PATROOM6_FLR_4 ZN REHEAT COIL INLET WATER NODE,PATROOM6_FLR_4 ZN REHEAT COIL OUTLET WATER NODE
   Branch,43,HOT WATER LOOP DEMAND BRANCH 42,HOT WATER LOOP,Plant Demand,PATROOM7_MULT10_FLR_4 ZN REHEAT COIL INLET WATER NODE,PATROOM7_MULT10_FLR_4 ZN REHEAT COIL OUTLET WATER NODE
   Branch,44,HOT WATER LOOP DEMAND BRANCH 43,HOT WATER LOOP,Plant Demand,PATROOM8_FLR_4 ZN REHEAT COIL INLET WATER NODE,PATROOM8_FLR_4 ZN REHEAT COIL OUTLET WATER NODE
   Branch,45,HOT WATER LOOP DEMAND BRANCH 44,HOT WATER LOOP,Plant Demand,VAV_2 MAIN HTG COIL INLET WATER NODE,VAV_2 MAIN HTG COIL OUTLET WATER NODE
   Branch,46,HOT WATER LOOP DEMAND BRANCH 45,HOT WATER LOOP,Plant Demand,PHYSTHERAPY_FLR_3 ZN REHEAT COIL INLET WATER NODE,PHYSTHERAPY_FLR_3 ZN REHEAT COIL OUTLET WATER NODE
   Branch,47,HOT WATER LOOP DEMAND BRANCH 46,HOT WATER LOOP,Plant Demand,NURSESTN_LOBBY_FLR_3 ZN REHEAT COIL INLET WATER NODE,NURSESTN_LOBBY_FLR_3 ZN REHEAT COIL OUTLET WATER NODE
   Branch,48,HOT WATER LOOP DEMAND BRANCH 47,HOT WATER LOOP,Plant Demand,CORRIDOR_SE_FLR_3 ZN REHEAT COIL INLET WATER NODE,CORRIDOR_SE_FLR_3 ZN REHEAT COIL OUTLET WATER NODE
   Branch,49,HOT WATER LOOP DEMAND BRANCH 48,HOT WATER LOOP,Plant Demand,CORRIDOR_NW_FLR_3 ZN REHEAT COIL INLET WATER NODE,CORRIDOR_NW_FLR_3 ZN REHEAT COIL OUTLET WATER NODE
   Branch,50,HOT WATER LOOP DEMAND BRANCH 49,HOT WATER LOOP,Plant Demand,RADIOLOGY_FLR_4 ZN REHEAT COIL INLET WATER NODE,RADIOLOGY_FLR_4 ZN REHEAT COIL OUTLET WATER NODE
   Branch,51,HOT WATER LOOP DEMAND BRANCH 50,HOT WATER LOOP,Plant Demand,NURSESTN_LOBBY_FLR_4 ZN REHEAT COIL INLET WATER NODE,NURSESTN_LOBBY_FLR_4 ZN REHEAT COIL OUTLET WATER NODE
   Branch,52,HOT WATER LOOP DEMAND BRANCH 51,HOT WATER LOOP,Plant Demand,CORRIDOR_SE_FLR_4 ZN REHEAT COIL INLET WATER NODE,CORRIDOR_SE_FLR_4 ZN REHEAT COIL OUTLET WATER NODE
   Branch,53,HOT WATER LOOP DEMAND BRANCH 52,HOT WATER LOOP,Plant Demand,CORRIDOR_NW_FLR_4 ZN REHEAT COIL INLET WATER NODE,CORRIDOR_NW_FLR_4 ZN REHEAT COIL OUTLET WATER NODE
   Branch,54,HOT WATER LOOP DEMAND BRANCH 53,HOT WATER LOOP,Plant Demand,DINING_FLR_5 ZN REHEAT COIL INLET WATER NODE,DINING_FLR_5 ZN REHEAT COIL OUTLET WATER NODE
   Branch,55,HOT WATER LOOP DEMAND BRANCH 54,HOT WATER LOOP,Plant Demand,NURSESTN_LOBBY_FLR_5 ZN REHEAT COIL INLET WATER NODE,NURSESTN_LOBBY_FLR_5 ZN REHEAT COIL OUTLET WATER NODE
   Branch,56,HOT WATER LOOP DEMAND BRANCH 55,HOT WATER LOOP,Plant Demand,OFFICE1_FLR_5 ZN REHEAT COIL INLET WATER NODE,OFFICE1_FLR_5 ZN REHEAT COIL OUTLET WATER NODE
   Branch,57,HOT WATER LOOP DEMAND BRANCH 56,HOT WATER LOOP,Plant Demand,OFFICE2_MULT5_FLR_5 ZN REHEAT COIL INLET WATER NODE,OFFICE2_MULT5_FLR_5 ZN REHEAT COIL OUTLET WATER NODE
   Branch,58,HOT WATER LOOP DEMAND BRANCH 57,HOT WATER LOOP,Plant Demand,OFFICE3_FLR_5 ZN REHEAT COIL INLET WATER NODE,OFFICE3_FLR_5 ZN REHEAT COIL OUTLET WATER NODE
   Branch,59,HOT WATER LOOP DEMAND BRANCH 58,HOT WATER LOOP,Plant Demand,OFFICE4_MULT6_FLR_5 ZN REHEAT COIL INLET WATER NODE,OFFICE4_MULT6_FLR_5 ZN REHEAT COIL OUTLET WATER NODE
   Branch,60,HOT WATER LOOP DEMAND BRANCH 59,HOT WATER LOOP,Plant Demand,CORRIDOR_FLR_5 ZN REHEAT COIL INLET WATER NODE,CORRIDOR_FLR_5 ZN REHEAT COIL OUTLET WATER NODE
   Branch,61,HOT WATER LOOP DEMAND BRANCH 60,HOT WATER LOOP,Plant Demand,VAV_LABS MAIN HTG COIL INLET WATER NODE,VAV_LABS MAIN HTG COIL OUTLET WATER NODE
   Branch,62,HOT WATER LOOP DEMAND BRANCH 61,HOT WATER LOOP,Plant Demand,LAB_FLR_3 ZN REHEAT COIL INLET WATER NODE,LAB_FLR_3 ZN REHEAT COIL OUTLET WATER NODE
   Branch,63,HOT WATER LOOP DEMAND BRANCH 62,HOT WATER LOOP,Plant Demand,LAB_FLR_4 ZN REHEAT COIL INLET WATER NODE,LAB_FLR_4 ZN REHEAT COIL OUTLET WATER NODE
   Branch,64,HOT WATER LOOP DEMAND BRANCH 63,HOT WATER LOOP,Plant Demand,CAV_KITCHEN MAIN HTG COIL INLET WATER NODE,CAV_KITCHEN MAIN HTG COIL OUTLET WATER NODE
   Branch,65,HOT WATER LOOP DEMAND BRANCH 64,HOT WATER LOOP,Plant Demand,ER_EXAM3_MULT4_FLR_1 WATER HTG COIL INLET WATER NODE,ER_EXAM3_MULT4_FLR_1 WATER HTG COIL OUTLET WATER NODE
   Branch,66,HOT WATER LOOP DEMAND BRANCH 65,HOT WATER LOOP,Plant Demand,OR2_MULT5_FLR_2 WATER HTG COIL INLET WATER NODE,OR2_MULT5_FLR_2 WATER HTG COIL OUTLET WATER NODE
   Branch,67,HOT WATER LOOP DEMAND BRANCH 66,HOT WATER LOOP,Plant Demand,ICU_FLR_2 WATER HTG COIL INLET WATER NODE,ICU_FLR_2 WATER HTG COIL OUTLET WATER NODE
   Branch,68,HOT WATER LOOP DEMAND BRANCH 67,HOT WATER LOOP,Plant Demand,PATROOM5_MULT10_FLR_4 WATER HTG COIL INLET WATER NODE,PATROOM5_MULT10_FLR_4 WATER HTG COIL OUTLET WATER NODE
   Branch,69,HOT WATER LOOP DEMAND BRANCH 68,HOT WATER LOOP,Plant Demand,LAB_FLR_3 WATER HTG COIL INLET WATER NODE,LAB_FLR_3 WATER HTG COIL OUTLET WATER NODE
   Branch,70,HOT WATER LOOP DEMAND BYPASS BRANCH,HOT WATER LOOP,Plant Demand,HOT WATER LOOP DEMAND BYPASS PIPE INLET NODE,HOT WATER LOOP DEMAND BYPASS PIPE OUTLET NODE
   Branch,71,HOT WATER LOOP DEMAND OUTLET BRANCH,HOT WATER LOOP,Plant Demand,HOT WATER LOOP DEMAND OUTLET INLET WATER NODE,HOT WATER LOOP DEMAND OUTLET NODE
 Branch List,15,LAUNDRY SERVICE WATER LOOP SUPPLY BRANCHES,LAUNDRY SERVICE WATER LOOP,Plant Supply,4
   Branch,1,LAUNDRY SERVICE WATER LOOP SUPPLY INLET BRANCH,LAUNDRY SERVICE WATER LOOP,Plant Supply,LAUNDRY SERVICE WATER LOOP SUPPLY INLET NODE,LAUNDRY SERVICE WATER LOOP WATER MAINS PRESSURE DRIVEN OUTLET WATER NODE
   Branch,2,LAUNDRY SERVICE WATER LOOP SUPPLY BRANCH 1,LAUNDRY SERVICE WATER LOOP,Plant Supply,300GAL NATURAL GAS WATER HEATER - 300KBTU/HR 0.804 THERM EFF SUPPLY INLET WATER NODE,300GAL NATURAL GAS WATER HEATER - 300KBTU/HR 0.804 THERM EFF SUPPLY OUTLET WATER NODE
   Branch,3,LAUNDRY SERVICE WATER LOOP SUPPLY BRANCH 2,LAUNDRY SERVICE WATER LOOP,Plant Supply,PIPE ADIABATIC 10 INLET WATER NODE,PIPE ADIABATIC 10 OUTLET WATER NODE
   Branch,4,LAUNDRY SERVICE WATER LOOP SUPPLY OUTLET BRANCH,LAUNDRY SERVICE WATER LOOP,Plant Supply,PIPE ADIABATIC 12 INLET WATER NODE,LAUNDRY SERVICE WATER LOOP SUPPLY OUTLET NODE
 Branch List,16,LAUNDRY SERVICE WATER LOOP DEMAND BRANCHES,LAUNDRY SERVICE WATER LOOP,Plant Demand,5
   Branch,1,LAUNDRY SERVICE WATER LOOP DEMAND INLET BRANCH,LAUNDRY SERVICE WATER LOOP,Plant Demand,LAUNDRY SERVICE WATER LOOP DEMAND INLET NODE,LAUNDRY SERVICE WATER LOOP DEMAND INLET PIPE NODE
   Branch,2,LAUNDRY SERVICE WATER LOOP DEMAND BRANCH 1,LAUNDRY SERVICE WATER LOOP,Plant Demand,PIPE ADIABATIC 11 INLET WATER NODE,PIPE ADIABATIC 11 OUTLET WATER NODE
   Branch,3,LAUNDRY SERVICE WATER LOOP DEMAND BRANCH 2,LAUNDRY SERVICE WATER LOOP,Plant Demand,LAUNDRY WUC 2.8GPM AT 180F INLET WATER NODE,LAUNDRY WUC 2.8GPM AT 180F OUTLET WATER NODE
   Branch,4,LAUNDRY SERVICE WATER LOOP DEMAND BYPASS BRANCH,LAUNDRY SERVICE WATER LOOP,Plant Demand,LAUNDRY SERVICE WATER LOOP DEMAND BYPASS PIPE INLET NODE,LAUNDRY SERVICE WATER LOOP DEMAND BYPASS PIPE OUTLET NODE
   Branch,5,LAUNDRY SERVICE WATER LOOP DEMAND OUTLET BRANCH,LAUNDRY SERVICE WATER LOOP,Plant Demand,PIPE ADIABATIC 13 INLET WATER NODE,LAUNDRY SERVICE WATER LOOP DEMAND OUTLET NODE
 Branch List,17,MAIN SERVICE WATER LOOP SUPPLY BRANCHES,MAIN SERVICE WATER LOOP,Plant Supply,4
   Branch,1,MAIN SERVICE WATER LOOP SUPPLY INLET BRANCH,MAIN SERVICE WATER LOOP,Plant Supply,MAIN SERVICE WATER LOOP SUPPLY INLET NODE,MAIN SERVICE WATER LOOP CIRCULATOR PUMP OUTLET WATER NODE
   Branch,2,MAIN SERVICE WATER LOOP SUPPLY BRANCH 1,MAIN SERVICE WATER LOOP,Plant Supply,600GAL NATURAL GAS WATER HEATER - 600KBTU/HR 0.803 THERM EFF SUPPLY INLET WATER NODE,600GAL NATURAL GAS WATER HEATER - 600KBTU/HR 0.803 THERM EFF SUPPLY OUTLET WATER NODE
   Branch,3,MAIN SERVICE WATER LOOP SUPPLY BRANCH 2,MAIN SERVICE WATER LOOP,Plant Supply,PIPE ADIABATIC 1 INLET WATER NODE,PIPE ADIABATIC 1 OUTLET WATER NODE
   Branch,4,MAIN SERVICE WATER LOOP SUPPLY OUTLET BRANCH,MAIN SERVICE WATER LOOP,Plant Supply,PIPE ADIABATIC 3 INLET WATER NODE,MAIN SERVICE WATER LOOP SUPPLY OUTLET NODE
 Branch List,18,MAIN SERVICE WATER LOOP DEMAND BRANCHES,MAIN SERVICE WATER LOOP,Plant Demand,6
   Branch,1,MAIN SERVICE WATER LOOP DEMAND INLET BRANCH,MAIN SERVICE WATER LOOP,Plant Demand,MAIN SERVICE WATER LOOP DEMAND INLET NODE,MAIN SERVICE WATER LOOP DEMAND INLET PIPE NODE
   Branch,2,MAIN SERVICE WATER LOOP DEMAND BRANCH 1,MAIN SERVICE WATER LOOP,Plant Demand,PIPE ADIABATIC 2 INLET WATER NODE,PIPE ADIABATIC 2 OUTLET WATER NODE
   Branch,3,MAIN SERVICE WATER LOOP DEMAND BRANCH 2,MAIN SERVICE WATER LOOP,Plant Demand,MAIN WUC 7.63GPM AT 140F INLET WATER NODE,MAIN WUC 7.63GPM AT 140F OUTLET WATER NODE
   Branch,4,MAIN SERVICE WATER LOOP DEMAND BRANCH 3,MAIN SERVICE WATER LOOP,Plant Demand,HX FOR BOOSTER WATER HEATING DEMAND INLET WATER NODE,MAINS WATER MAKEUP FOR SWH BOOSTER OUTLET WATER NODE
   Branch,5,MAIN SERVICE WATER LOOP DEMAND BYPASS BRANCH,MAIN SERVICE WATER LOOP,Plant Demand,MAIN SERVICE WATER LOOP DEMAND BYPASS PIPE INLET NODE,MAIN SERVICE WATER LOOP DEMAND BYPASS PIPE OUTLET NODE
   Branch,6,MAIN SERVICE WATER LOOP DEMAND OUTLET BRANCH,MAIN SERVICE WATER LOOP,Plant Demand,PIPE ADIABATIC 4 INLET WATER NODE,MAIN SERVICE WATER LOOP DEMAND OUTLET NODE
 Branch List,19,SERVICE WATER LOOP SUPPLY BRANCHES,SERVICE WATER LOOP,Plant Supply,4
   Branch,1,SERVICE WATER LOOP SUPPLY INLET BRANCH,SERVICE WATER LOOP,Plant Supply,SERVICE WATER LOOP SUPPLY INLET NODE,BOOSTER WATER LOOP PUMP OUTLET WATER NODE
   Branch,2,SERVICE WATER LOOP SUPPLY BRANCH 1,SERVICE WATER LOOP,Plant Supply,6.0GAL ELECTRICITY BOOSTER WATER HEATER - 10KBTU/HR 1.0 THERM EFF SUPPLY INLET WATER NODE,6.0GAL ELECTRICITY BOOSTER WATER HEATER - 10KBTU/HR 1.0 THERM EFF SUPPLY OUTLET WATER NODE
   Branch,3,SERVICE WATER LOOP SUPPLY BRANCH 2,SERVICE WATER LOOP,Plant Supply,PIPE ADIABATIC 5 INLET WATER NODE,PIPE ADIABATIC 5 OUTLET WATER NODE
   Branch,4,SERVICE WATER LOOP SUPPLY OUTLET BRANCH,SERVICE WATER LOOP,Plant Supply,PIPE ADIABATIC 7 INLET WATER NODE,SERVICE WATER LOOP SUPPLY OUTLET NODE
 Branch List,20,SERVICE WATER LOOP DEMAND BRANCHES,SERVICE WATER LOOP,Plant Demand,5
   Branch,1,SERVICE WATER LOOP DEMAND INLET BRANCH,SERVICE WATER LOOP,Plant Demand,SERVICE WATER LOOP DEMAND INLET NODE,PIPE ADIABATIC 8 OUTLET WATER NODE
   Branch,2,SERVICE WATER LOOP DEMAND BRANCH 1,SERVICE WATER LOOP,Plant Demand,PIPE ADIABATIC 6 INLET WATER NODE,PIPE ADIABATIC 6 OUTLET WATER NODE
   Branch,3,SERVICE WATER LOOP DEMAND BRANCH 2,SERVICE WATER LOOP,Plant Demand,WATER USE CONNECTIONS 1 INLET WATER NODE,WATER USE CONNECTIONS 1 OUTLET WATER NODE
   Branch,4,SERVICE WATER LOOP DEMAND BYPASS BRANCH,SERVICE WATER LOOP,Plant Demand,SERVICE WATER LOOP DEMAND BYPASS PIPE INLET NODE,SERVICE WATER LOOP DEMAND BYPASS PIPE OUTLET NODE
   Branch,5,SERVICE WATER LOOP DEMAND OUTLET BRANCH,SERVICE WATER LOOP,Plant Demand,PIPE ADIABATIC 9 INLET WATER NODE,SERVICE WATER LOOP DEMAND OUTLET NODE
! ===============================================================
! <#Supply Air Paths>,<Number of Supply Air Paths>
 #Supply Air Paths,8
! <Supply Air Path>,<Supply Air Path Count>,<Supply Air Path Name>,<AirLoopHVAC Name>
! <#Components on Supply Air Path>,<Number of Components>
! <Supply Air Path Component>,<Component Count>,<Component Type>,<Component Name>,<AirLoopHVAC Name>
! <#Outlet Nodes on Supply Air Path Component>,<Number of Nodes>
! <Supply Air Path Component Nodes>,<Node Count>,<Component Type>,<Component Name>,<Inlet Node Name>,<Outlet Node Name>,<AirLoopHVAC Name>
 Supply Air Path,1,CAV_KITCHEN CAV_KITCHEN DEMAND INLET NODE SUPPLY PATH,CAV_KITCHEN
   #Components on Supply Air Path,1
   Supply Air Path Component,1,AIRLOOPHVAC:ZONESPLITTER,AIR LOOP HVAC ZONE SPLITTER 8,CAV_KITCHEN
     #Outlet Nodes on Supply Air Path Component,1
     Supply Air Path Component Nodes,1,AIRLOOPHVAC:ZONESPLITTER,AIR LOOP HVAC ZONE SPLITTER 8,CAV_KITCHEN DEMAND INLET NODE,KITCHEN_FLR_5 ZN CAV TERMINAL INLET AIR NODE,CAV_KITCHEN
! <#Nodes on Supply Air Path>,<Number of Nodes>
! <Supply Air Path Node>,<Node Type>,<Node Count>,<Node Name>,<AirLoopHVAC Name>
#Nodes on Supply Air Path,2
   Supply Air Path Node,Inlet Node,1,CAV_KITCHEN DEMAND INLET NODE,CAV_KITCHEN
   Supply Air Path Node,Outlet Node,2,KITCHEN_FLR_5 ZN CAV TERMINAL INLET AIR NODE,CAV_KITCHEN
 Supply Air Path,2,VAV_1 VAV_1 DEMAND INLET NODE SUPPLY PATH,VAV_1
   #Components on Supply Air Path,1
   Supply Air Path Component,1,AIRLOOPHVAC:ZONESPLITTER,AIR LOOP HVAC ZONE SPLITTER 1,VAV_1
     #Outlet Nodes on Supply Air Path Component,8
     Supply Air Path Component Nodes,1,AIRLOOPHVAC:ZONESPLITTER,AIR LOOP HVAC ZONE SPLITTER 1,VAV_1 DEMAND INLET NODE,BASEMENT ZN VAV TERMINAL INLET AIR NODE,VAV_1
     Supply Air Path Component Nodes,2,AIRLOOPHVAC:ZONESPLITTER,AIR LOOP HVAC ZONE SPLITTER 1,VAV_1 DEMAND INLET NODE,OFFICE1_MULT4_FLR_1 ZN VAV TERMINAL INLET AIR NODE,VAV_1
     Supply Air Path Component Nodes,3,AIRLOOPHVAC:ZONESPLITTER,AIR LOOP HVAC ZONE SPLITTER 1,VAV_1 DEMAND INLET NODE,LOBBY_RECORDS_FLR_1 ZN VAV TERMINAL INLET AIR NODE,VAV_1
     Supply Air Path Component Nodes,4,AIRLOOPHVAC:ZONESPLITTER,AIR LOOP HVAC ZONE SPLITTER 1,VAV_1 DEMAND INLET NODE,CORRIDOR_FLR_1 ZN VAV TERMINAL INLET AIR NODE,VAV_1
     Supply Air Path Component Nodes,5,AIRLOOPHVAC:ZONESPLITTER,AIR LOOP HVAC ZONE SPLITTER 1,VAV_1 DEMAND INLET NODE,ER_NURSESTN_LOBBY_FLR_1 ZN VAV TERMINAL INLET AIR NODE,VAV_1
     Supply Air Path Component Nodes,6,AIRLOOPHVAC:ZONESPLITTER,AIR LOOP HVAC ZONE SPLITTER 1,VAV_1 DEMAND INLET NODE,ICU_NURSESTN_LOBBY_FLR_2 ZN VAV TERMINAL INLET AIR NODE,VAV_1
     Supply Air Path Component Nodes,7,AIRLOOPHVAC:ZONESPLITTER,AIR LOOP HVAC ZONE SPLITTER 1,VAV_1 DEMAND INLET NODE,CORRIDOR_FLR_2 ZN VAV TERMINAL INLET AIR NODE,VAV_1
     Supply Air Path Component Nodes,8,AIRLOOPHVAC:ZONESPLITTER,AIR LOOP HVAC ZONE SPLITTER 1,VAV_1 DEMAND INLET NODE,OR_NURSESTN_LOBBY_FLR_2 ZN VAV TERMINAL INLET AIR NODE,VAV_1
! <#Nodes on Supply Air Path>,<Number of Nodes>
! <Supply Air Path Node>,<Node Type>,<Node Count>,<Node Name>,<AirLoopHVAC Name>
#Nodes on Supply Air Path,9
   Supply Air Path Node,Inlet Node,1,VAV_1 DEMAND INLET NODE,VAV_1
   Supply Air Path Node,Outlet Node,2,BASEMENT ZN VAV TERMINAL INLET AIR NODE,VAV_1
   Supply Air Path Node,Outlet Node,3,OFFICE1_MULT4_FLR_1 ZN VAV TERMINAL INLET AIR NODE,VAV_1
   Supply Air Path Node,Outlet Node,4,LOBBY_RECORDS_FLR_1 ZN VAV TERMINAL INLET AIR NODE,VAV_1
   Supply Air Path Node,Outlet Node,5,CORRIDOR_FLR_1 ZN VAV TERMINAL INLET AIR NODE,VAV_1
   Supply Air Path Node,Outlet Node,6,ER_NURSESTN_LOBBY_FLR_1 ZN VAV TERMINAL INLET AIR NODE,VAV_1
   Supply Air Path Node,Outlet Node,7,ICU_NURSESTN_LOBBY_FLR_2 ZN VAV TERMINAL INLET AIR NODE,VAV_1
   Supply Air Path Node,Outlet Node,8,CORRIDOR_FLR_2 ZN VAV TERMINAL INLET AIR NODE,VAV_1
   Supply Air Path Node,Outlet Node,9,OR_NURSESTN_LOBBY_FLR_2 ZN VAV TERMINAL INLET AIR NODE,VAV_1
 Supply Air Path,3,VAV_2 VAV_2 DEMAND INLET NODE SUPPLY PATH,VAV_2
   #Components on Supply Air Path,1
   Supply Air Path Component,1,AIRLOOPHVAC:ZONESPLITTER,AIR LOOP HVAC ZONE SPLITTER 6,VAV_2
     #Outlet Nodes on Supply Air Path Component,15
     Supply Air Path Component Nodes,1,AIRLOOPHVAC:ZONESPLITTER,AIR LOOP HVAC ZONE SPLITTER 6,VAV_2 DEMAND INLET NODE,PHYSTHERAPY_FLR_3 ZN VAV TERMINAL INLET AIR NODE,VAV_2
     Supply Air Path Component Nodes,2,AIRLOOPHVAC:ZONESPLITTER,AIR LOOP HVAC ZONE SPLITTER 6,VAV_2 DEMAND INLET NODE,NURSESTN_LOBBY_FLR_3 ZN VAV TERMINAL INLET AIR NODE,VAV_2
     Supply Air Path Component Nodes,3,AIRLOOPHVAC:ZONESPLITTER,AIR LOOP HVAC ZONE SPLITTER 6,VAV_2 DEMAND INLET NODE,CORRIDOR_SE_FLR_3 ZN VAV TERMINAL INLET AIR NODE,VAV_2
     Supply Air Path Component Nodes,4,AIRLOOPHVAC:ZONESPLITTER,AIR LOOP HVAC ZONE SPLITTER 6,VAV_2 DEMAND INLET NODE,CORRIDOR_NW_FLR_3 ZN VAV TERMINAL INLET AIR NODE,VAV_2
     Supply Air Path Component Nodes,5,AIRLOOPHVAC:ZONESPLITTER,AIR LOOP HVAC ZONE SPLITTER 6,VAV_2 DEMAND INLET NODE,RADIOLOGY_FLR_4 ZN VAV TERMINAL INLET AIR NODE,VAV_2
     Supply Air Path Component Nodes,6,AIRLOOPHVAC:ZONESPLITTER,AIR LOOP HVAC ZONE SPLITTER 6,VAV_2 DEMAND INLET NODE,NURSESTN_LOBBY_FLR_4 ZN VAV TERMINAL INLET AIR NODE,VAV_2
     Supply Air Path Component Nodes,7,AIRLOOPHVAC:ZONESPLITTER,AIR LOOP HVAC ZONE SPLITTER 6,VAV_2 DEMAND INLET NODE,CORRIDOR_SE_FLR_4 ZN VAV TERMINAL INLET AIR NODE,VAV_2
     Supply Air Path Component Nodes,8,AIRLOOPHVAC:ZONESPLITTER,AIR LOOP HVAC ZONE SPLITTER 6,VAV_2 DEMAND INLET NODE,CORRIDOR_NW_FLR_4 ZN VAV TERMINAL INLET AIR NODE,VAV_2
     Supply Air Path Component Nodes,9,AIRLOOPHVAC:ZONESPLITTER,AIR LOOP HVAC ZONE SPLITTER 6,VAV_2 DEMAND INLET NODE,DINING_FLR_5 ZN VAV TERMINAL INLET AIR NODE,VAV_2
     Supply Air Path Component Nodes,10,AIRLOOPHVAC:ZONESPLITTER,AIR LOOP HVAC ZONE SPLITTER 6,VAV_2 DEMAND INLET NODE,NURSESTN_LOBBY_FLR_5 ZN VAV TERMINAL INLET AIR NODE,VAV_2
     Supply Air Path Component Nodes,11,AIRLOOPHVAC:ZONESPLITTER,AIR LOOP HVAC ZONE SPLITTER 6,VAV_2 DEMAND INLET NODE,OFFICE1_FLR_5 ZN VAV TERMINAL INLET AIR NODE,VAV_2
     Supply Air Path Component Nodes,12,AIRLOOPHVAC:ZONESPLITTER,AIR LOOP HVAC ZONE SPLITTER 6,VAV_2 DEMAND INLET NODE,OFFICE2_MULT5_FLR_5 ZN VAV TERMINAL INLET AIR NODE,VAV_2
     Supply Air Path Component Nodes,13,AIRLOOPHVAC:ZONESPLITTER,AIR LOOP HVAC ZONE SPLITTER 6,VAV_2 DEMAND INLET NODE,OFFICE3_FLR_5 ZN VAV TERMINAL INLET AIR NODE,VAV_2
     Supply Air Path Component Nodes,14,AIRLOOPHVAC:ZONESPLITTER,AIR LOOP HVAC ZONE SPLITTER 6,VAV_2 DEMAND INLET NODE,OFFICE4_MULT6_FLR_5 ZN VAV TERMINAL INLET AIR NODE,VAV_2
     Supply Air Path Component Nodes,15,AIRLOOPHVAC:ZONESPLITTER,AIR LOOP HVAC ZONE SPLITTER 6,VAV_2 DEMAND INLET NODE,CORRIDOR_FLR_5 ZN VAV TERMINAL INLET AIR NODE,VAV_2
! <#Nodes on Supply Air Path>,<Number of Nodes>
! <Supply Air Path Node>,<Node Type>,<Node Count>,<Node Name>,<AirLoopHVAC Name>
#Nodes on Supply Air Path,16
   Supply Air Path Node,Inlet Node,1,VAV_2 DEMAND INLET NODE,VAV_2
   Supply Air Path Node,Outlet Node,2,PHYSTHERAPY_FLR_3 ZN VAV TERMINAL INLET AIR NODE,VAV_2
   Supply Air Path Node,Outlet Node,3,NURSESTN_LOBBY_FLR_3 ZN VAV TERMINAL INLET AIR NODE,VAV_2
   Supply Air Path Node,Outlet Node,4,CORRIDOR_SE_FLR_3 ZN VAV TERMINAL INLET AIR NODE,VAV_2
   Supply Air Path Node,Outlet Node,5,CORRIDOR_NW_FLR_3 ZN VAV TERMINAL INLET AIR NODE,VAV_2
   Supply Air Path Node,Outlet Node,6,RADIOLOGY_FLR_4 ZN VAV TERMINAL INLET AIR NODE,VAV_2
   Supply Air Path Node,Outlet Node,7,NURSESTN_LOBBY_FLR_4 ZN VAV TERMINAL INLET AIR NODE,VAV_2
   Supply Air Path Node,Outlet Node,8,CORRIDOR_SE_FLR_4 ZN VAV TERMINAL INLET AIR NODE,VAV_2
   Supply Air Path Node,Outlet Node,9,CORRIDOR_NW_FLR_4 ZN VAV TERMINAL INLET AIR NODE,VAV_2
   Supply Air Path Node,Outlet Node,10,DINING_FLR_5 ZN VAV TERMINAL INLET AIR NODE,VAV_2
   Supply Air Path Node,Outlet Node,11,NURSESTN_LOBBY_FLR_5 ZN VAV TERMINAL INLET AIR NODE,VAV_2
   Supply Air Path Node,Outlet Node,12,OFFICE1_FLR_5 ZN VAV TERMINAL INLET AIR NODE,VAV_2
   Supply Air Path Node,Outlet Node,13,OFFICE2_MULT5_FLR_5 ZN VAV TERMINAL INLET AIR NODE,VAV_2
   Supply Air Path Node,Outlet Node,14,OFFICE3_FLR_5 ZN VAV TERMINAL INLET AIR NODE,VAV_2
   Supply Air Path Node,Outlet Node,15,OFFICE4_MULT6_FLR_5 ZN VAV TERMINAL INLET AIR NODE,VAV_2
   Supply Air Path Node,Outlet Node,16,CORRIDOR_FLR_5 ZN VAV TERMINAL INLET AIR NODE,VAV_2
 Supply Air Path,4,VAV_ER VAV_ER DEMAND INLET NODE SUPPLY PATH,VAV_ER
   #Components on Supply Air Path,1
   Supply Air Path Component,1,AIRLOOPHVAC:ZONESPLITTER,AIR LOOP HVAC ZONE SPLITTER 2,VAV_ER
     #Outlet Nodes on Supply Air Path Component,5
     Supply Air Path Component Nodes,1,AIRLOOPHVAC:ZONESPLITTER,AIR LOOP HVAC ZONE SPLITTER 2,VAV_ER DEMAND INLET NODE,ER_EXAM1_MULT4_FLR_1 ZN VAV TERMINAL INLET AIR NODE,VAV_ER
     Supply Air Path Component Nodes,2,AIRLOOPHVAC:ZONESPLITTER,AIR LOOP HVAC ZONE SPLITTER 2,VAV_ER DEMAND INLET NODE,ER_TRAUMA1_FLR_1 ZN VAV TERMINAL INLET AIR NODE,VAV_ER
     Supply Air Path Component Nodes,3,AIRLOOPHVAC:ZONESPLITTER,AIR LOOP HVAC ZONE SPLITTER 2,VAV_ER DEMAND INLET NODE,ER_EXAM3_MULT4_FLR_1 ZN VAV TERMINAL INLET AIR NODE,VAV_ER
     Supply Air Path Component Nodes,4,AIRLOOPHVAC:ZONESPLITTER,AIR LOOP HVAC ZONE SPLITTER 2,VAV_ER DEMAND INLET NODE,ER_TRAUMA2_FLR_1 ZN VAV TERMINAL INLET AIR NODE,VAV_ER
     Supply Air Path Component Nodes,5,AIRLOOPHVAC:ZONESPLITTER,AIR LOOP HVAC ZONE SPLITTER 2,VAV_ER DEMAND INLET NODE,ER_TRIAGE_MULT4_FLR_1 ZN VAV TERMINAL INLET AIR NODE,VAV_ER
! <#Nodes on Supply Air Path>,<Number of Nodes>
! <Supply Air Path Node>,<Node Type>,<Node Count>,<Node Name>,<AirLoopHVAC Name>
#Nodes on Supply Air Path,6
   Supply Air Path Node,Inlet Node,1,VAV_ER DEMAND INLET NODE,VAV_ER
   Supply Air Path Node,Outlet Node,2,ER_EXAM1_MULT4_FLR_1 ZN VAV TERMINAL INLET AIR NODE,VAV_ER
   Supply Air Path Node,Outlet Node,3,ER_TRAUMA1_FLR_1 ZN VAV TERMINAL INLET AIR NODE,VAV_ER
   Supply Air Path Node,Outlet Node,4,ER_EXAM3_MULT4_FLR_1 ZN VAV TERMINAL INLET AIR NODE,VAV_ER
   Supply Air Path Node,Outlet Node,5,ER_TRAUMA2_FLR_1 ZN VAV TERMINAL INLET AIR NODE,VAV_ER
   Supply Air Path Node,Outlet Node,6,ER_TRIAGE_MULT4_FLR_1 ZN VAV TERMINAL INLET AIR NODE,VAV_ER
 Supply Air Path,5,VAV_ICU VAV_ICU DEMAND INLET NODE SUPPLY PATH,VAV_ICU
   #Components on Supply Air Path,1
   Supply Air Path Component,1,AIRLOOPHVAC:ZONESPLITTER,AIR LOOP HVAC ZONE SPLITTER 4,VAV_ICU
     #Outlet Nodes on Supply Air Path Component,4
     Supply Air Path Component Nodes,1,AIRLOOPHVAC:ZONESPLITTER,AIR LOOP HVAC ZONE SPLITTER 4,VAV_ICU DEMAND INLET NODE,IC_PATROOM1_MULT5_FLR_2 ZN VAV TERMINAL INLET AIR NODE,VAV_ICU
     Supply Air Path Component Nodes,2,AIRLOOPHVAC:ZONESPLITTER,AIR LOOP HVAC ZONE SPLITTER 4,VAV_ICU DEMAND INLET NODE,IC_PATROOM2_FLR_2 ZN VAV TERMINAL INLET AIR NODE,VAV_ICU
     Supply Air Path Component Nodes,3,AIRLOOPHVAC:ZONESPLITTER,AIR LOOP HVAC ZONE SPLITTER 4,VAV_ICU DEMAND INLET NODE,IC_PATROOM3_MULT6_FLR_2 ZN VAV TERMINAL INLET AIR NODE,VAV_ICU
     Supply Air Path Component Nodes,4,AIRLOOPHVAC:ZONESPLITTER,AIR LOOP HVAC ZONE SPLITTER 4,VAV_ICU DEMAND INLET NODE,ICU_FLR_2 ZN VAV TERMINAL INLET AIR NODE,VAV_ICU
! <#Nodes on Supply Air Path>,<Number of Nodes>
! <Supply Air Path Node>,<Node Type>,<Node Count>,<Node Name>,<AirLoopHVAC Name>
#Nodes on Supply Air Path,5
   Supply Air Path Node,Inlet Node,1,VAV_ICU DEMAND INLET NODE,VAV_ICU
   Supply Air Path Node,Outlet Node,2,IC_PATROOM1_MULT5_FLR_2 ZN VAV TERMINAL INLET AIR NODE,VAV_ICU
   Supply Air Path Node,Outlet Node,3,IC_PATROOM2_FLR_2 ZN VAV TERMINAL INLET AIR NODE,VAV_ICU
   Supply Air Path Node,Outlet Node,4,IC_PATROOM3_MULT6_FLR_2 ZN VAV TERMINAL INLET AIR NODE,VAV_ICU
   Supply Air Path Node,Outlet Node,5,ICU_FLR_2 ZN VAV TERMINAL INLET AIR NODE,VAV_ICU
 Supply Air Path,6,VAV_LABS VAV_LABS DEMAND INLET NODE SUPPLY PATH,VAV_LABS
   #Components on Supply Air Path,1
   Supply Air Path Component,1,AIRLOOPHVAC:ZONESPLITTER,AIR LOOP HVAC ZONE SPLITTER 7,VAV_LABS
     #Outlet Nodes on Supply Air Path Component,2
     Supply Air Path Component Nodes,1,AIRLOOPHVAC:ZONESPLITTER,AIR LOOP HVAC ZONE SPLITTER 7,VAV_LABS DEMAND INLET NODE,LAB_FLR_3 ZN VAV TERMINAL INLET AIR NODE,VAV_LABS
     Supply Air Path Component Nodes,2,AIRLOOPHVAC:ZONESPLITTER,AIR LOOP HVAC ZONE SPLITTER 7,VAV_LABS DEMAND INLET NODE,LAB_FLR_4 ZN VAV TERMINAL INLET AIR NODE,VAV_LABS
[...]
 Non-Parent Node Connection,KITCHEN_FLR_5 ZN RETURN AIR NODE,AIRLOOPHVAC:ZONEMIXER,AIR LOOP HVAC ZONE MIXER 8,Inlet,1
 Non-Parent Node Connection,VAV_1 DEMAND OUTLET NODE,AIRLOOPHVAC:ZONEMIXER,AIR LOOP HVAC ZONE MIXER 1,Outlet,1
 Non-Parent Node Connection,BASEMENT ZN RETURN AIR NODE,AIRLOOPHVAC:ZONEMIXER,AIR LOOP HVAC ZONE MIXER 1,Inlet,1
 Non-Parent Node Connection,OFFICE1_MULT4_FLR_1 ZN RETURN AIR NODE,AIRLOOPHVAC:ZONEMIXER,AIR LOOP HVAC ZONE MIXER 1,Inlet,1
 Non-Parent Node Connection,LOBBY_RECORDS_FLR_1 ZN RETURN AIR NODE,AIRLOOPHVAC:ZONEMIXER,AIR LOOP HVAC ZONE MIXER 1,Inlet,1
 Non-Parent Node Connection,CORRIDOR_FLR_1 ZN RETURN AIR NODE,AIRLOOPHVAC:ZONEMIXER,AIR LOOP HVAC ZONE MIXER 1,Inlet,1
 Non-Parent Node Connection,ER_NURSESTN_LOBBY_FLR_1 ZN RETURN AIR NODE,AIRLOOPHVAC:ZONEMIXER,AIR LOOP HVAC ZONE MIXER 1,Inlet,1
 Non-Parent Node Connection,ICU_NURSESTN_LOBBY_FLR_2 ZN RETURN AIR NODE,AIRLOOPHVAC:ZONEMIXER,AIR LOOP HVAC ZONE MIXER 1,Inlet,1
 Non-Parent Node Connection,CORRIDOR_FLR_2 ZN RETURN AIR NODE,AIRLOOPHVAC:ZONEMIXER,AIR LOOP HVAC ZONE MIXER 1,Inlet,1
 Non-Parent Node Connection,OR_NURSESTN_LOBBY_FLR_2 ZN RETURN AIR NODE,AIRLOOPHVAC:ZONEMIXER,AIR LOOP HVAC ZONE MIXER 1,Inlet,1
 Non-Parent Node Connection,VAV_2 DEMAND OUTLET NODE,AIRLOOPHVAC:ZONEMIXER,AIR LOOP HVAC ZONE MIXER 6,Outlet,1
 Non-Parent Node Connection,PHYSTHERAPY_FLR_3 ZN RETURN AIR NODE,AIRLOOPHVAC:ZONEMIXER,AIR LOOP HVAC ZONE MIXER 6,Inlet,1
 Non-Parent Node Connection,NURSESTN_LOBBY_FLR_3 ZN RETURN AIR NODE,AIRLOOPHVAC:ZONEMIXER,AIR LOOP HVAC ZONE MIXER 6,Inlet,1
 Non-Parent Node Connection,CORRIDOR_SE_FLR_3 ZN RETURN AIR NODE,AIRLOOPHVAC:ZONEMIXER,AIR LOOP HVAC ZONE MIXER 6,Inlet,1
 Non-Parent Node Connection,CORRIDOR_NW_FLR_3 ZN RETURN AIR NODE,AIRLOOPHVAC:ZONEMIXER,AIR LOOP HVAC ZONE MIXER 6,Inlet,1
 Non-Parent Node Connection,RADIOLOGY_FLR_4 ZN RETURN AIR NODE,AIRLOOPHVAC:ZONEMIXER,AIR LOOP HVAC ZONE MIXER 6,Inlet,1
 Non-Parent Node Connection,NURSESTN_LOBBY_FLR_4 ZN RETURN AIR NODE,AIRLOOPHVAC:ZONEMIXER,AIR LOOP HVAC ZONE MIXER 6,Inlet,1
 Non-Parent Node Connection,CORRIDOR_SE_FLR_4 ZN RETURN AIR NODE,AIRLOOPHVAC:ZONEMIXER,AIR LOOP HVAC ZONE MIXER 6,Inlet,1
 Non-Parent Node Connection,CORRIDOR_NW_FLR_4 ZN RETURN AIR NODE,AIRLOOPHVAC:ZONEMIXER,AIR LOOP HVAC ZONE MIXER 6,Inlet,1
 Non-Parent Node Connection,DINING_FLR_5 ZN RETURN AIR NODE,AIRLOOPHVAC:ZONEMIXER,AIR LOOP HVAC ZONE MIXER 6,Inlet,1
 Non-Parent Node Connection,NURSESTN_LOBBY_FLR_5 ZN RETURN AIR NODE,AIRLOOPHVAC:ZONEMIXER,AIR LOOP HVAC ZONE MIXER 6,Inlet,1
 Non-Parent Node Connection,OFFICE1_FLR_5 ZN RETURN AIR NODE,AIRLOOPHVAC:ZONEMIXER,AIR LOOP HVAC ZONE MIXER 6,Inlet,1
 Non-Parent Node Connection,OFFICE2_MULT5_FLR_5 ZN RETURN AIR NODE,AIRLOOPHVAC:ZONEMIXER,AIR LOOP HVAC ZONE MIXER 6,Inlet,1
 Non-Parent Node Connection,OFFICE3_FLR_5 ZN RETURN AIR NODE,AIRLOOPHVAC:ZONEMIXER,AIR LOOP HVAC ZONE MIXER 6,Inlet,1
 Non-Parent Node Connection,OFFICE4_MULT6_FLR_5 ZN RETURN AIR NODE,AIRLOOPHVAC:ZONEMIXER,AIR LOOP HVAC ZONE MIXER 6,Inlet,1
 Non-Parent Node Connection,CORRIDOR_FLR_5 ZN RETURN AIR NODE,AIRLOOPHVAC:ZONEMIXER,AIR LOOP HVAC ZONE MIXER 6,Inlet,1
 Non-Parent Node Connection,VAV_ER DEMAND OUTLET NODE,AIRLOOPHVAC:ZONEMIXER,AIR LOOP HVAC ZONE MIXER 2,Outlet,1
 Non-Parent Node Connection,ER_EXAM1_MULT4_FLR_1 ZN RETURN AIR NODE,AIRLOOPHVAC:ZONEMIXER,AIR LOOP HVAC ZONE MIXER 2,Inlet,1
 Non-Parent Node Connection,ER_TRAUMA1_FLR_1 ZN RETURN AIR NODE,AIRLOOPHVAC:ZONEMIXER,AIR LOOP HVAC ZONE MIXER 2,Inlet,1
 Non-Parent Node Connection,ER_EXAM3_MULT4_FLR_1 ZN RETURN AIR NODE,AIRLOOPHVAC:ZONEMIXER,AIR LOOP HVAC ZONE MIXER 2,Inlet,1
 Non-Parent Node Connection,ER_TRAUMA2_FLR_1 ZN RETURN AIR NODE,AIRLOOPHVAC:ZONEMIXER,AIR LOOP HVAC ZONE MIXER 2,Inlet,1
 Non-Parent Node Connection,ER_TRIAGE_MULT4_FLR_1 ZN RETURN AIR NODE,AIRLOOPHVAC:ZONEMIXER,AIR LOOP HVAC ZONE MIXER 2,Inlet,1
 Non-Parent Node Connection,VAV_ICU DEMAND OUTLET NODE,AIRLOOPHVAC:ZONEMIXER,AIR LOOP HVAC ZONE MIXER 4,Outlet,1
 Non-Parent Node Connection,IC_PATROOM1_MULT5_FLR_2 ZN RETURN AIR NODE,AIRLOOPHVAC:ZONEMIXER,AIR LOOP HVAC ZONE MIXER 4,Inlet,1
 Non-Parent Node Connection,IC_PATROOM2_FLR_2 ZN RETURN AIR NODE,AIRLOOPHVAC:ZONEMIXER,AIR LOOP HVAC ZONE MIXER 4,Inlet,1
 Non-Parent Node Connection,IC_PATROOM3_MULT6_FLR_2 ZN RETURN AIR NODE,AIRLOOPHVAC:ZONEMIXER,AIR LOOP HVAC ZONE MIXER 4,Inlet,1
 Non-Parent Node Connection,ICU_FLR_2 ZN RETURN AIR NODE,AIRLOOPHVAC:ZONEMIXER,AIR LOOP HVAC ZONE MIXER 4,Inlet,1
 Non-Parent Node Connection,VAV_LABS DEMAND OUTLET NODE,AIRLOOPHVAC:ZONEMIXER,AIR LOOP HVAC ZONE MIXER 7,Outlet,1
 Non-Parent Node Connection,LAB_FLR_3 ZN RETURN AIR NODE,AIRLOOPHVAC:ZONEMIXER,AIR LOOP HVAC ZONE MIXER 7,Inlet,1
 Non-Parent Node Connection,LAB_FLR_4 ZN RETURN AIR NODE,AIRLOOPHVAC:ZONEMIXER,AIR LOOP HVAC ZONE MIXER 7,Inlet,1
 Non-Parent Node Connection,VAV_OR DEMAND OUTLET NODE,AIRLOOPHVAC:ZONEMIXER,AIR LOOP HVAC ZONE MIXER 3,Outlet,1
 Non-Parent Node Connection,OR1_FLR_2 ZN RETURN AIR NODE,AIRLOOPHVAC:ZONEMIXER,AIR LOOP HVAC ZONE MIXER 3,Inlet,1
 Non-Parent Node Connection,OR2_MULT5_FLR_2 ZN RETURN AIR NODE,AIRLOOPHVAC:ZONEMIXER,AIR LOOP HVAC ZONE MIXER 3,Inlet,1
 Non-Parent Node Connection,OR3_FLR_2 ZN RETURN AIR NODE,AIRLOOPHVAC:ZONEMIXER,AIR LOOP HVAC ZONE MIXER 3,Inlet,1
 Non-Parent Node Connection,OR4_FLR_2 ZN RETURN AIR NODE,AIRLOOPHVAC:ZONEMIXER,AIR LOOP HVAC ZONE MIXER 3,Inlet,1
 Non-Parent Node Connection,VAV_PATRMS DEMAND OUTLET NODE,AIRLOOPHVAC:ZONEMIXER,AIR LOOP HVAC ZONE MIXER 5,Outlet,1
 Non-Parent Node Connection,PATROOM1_MULT10_FLR_3 ZN RETURN AIR NODE,AIRLOOPHVAC:ZONEMIXER,AIR LOOP HVAC ZONE MIXER 5,Inlet,1
 Non-Parent Node Connection,PATROOM2_FLR_3 ZN RETURN AIR NODE,AIRLOOPHVAC:ZONEMIXER,AIR LOOP HVAC ZONE MIXER 5,Inlet,1
 Non-Parent Node Connection,PATROOM3_MULT10_FLR_3 ZN RETURN AIR NODE,AIRLOOPHVAC:ZONEMIXER,AIR LOOP HVAC ZONE MIXER 5,Inlet,1
 Non-Parent Node Connection,PATROOM4_FLR_3 ZN RETURN AIR NODE,AIRLOOPHVAC:ZONEMIXER,AIR LOOP HVAC ZONE MIXER 5,Inlet,1
 Non-Parent Node Connection,PATROOM5_MULT10_FLR_3 ZN RETURN AIR NODE,AIRLOOPHVAC:ZONEMIXER,AIR LOOP HVAC ZONE MIXER 5,Inlet,1
 Non-Parent Node Connection,PATROOM6_FLR_3 ZN RETURN AIR NODE,AIRLOOPHVAC:ZONEMIXER,AIR LOOP HVAC ZONE MIXER 5,Inlet,1
 Non-Parent Node Connection,PATROOM7_MULT10_FLR_3 ZN RETURN AIR NODE,AIRLOOPHVAC:ZONEMIXER,AIR LOOP HVAC ZONE MIXER 5,Inlet,1
 Non-Parent Node Connection,PATROOM8_FLR_3 ZN RETURN AIR NODE,AIRLOOPHVAC:ZONEMIXER,AIR LOOP HVAC ZONE MIXER 5,Inlet,1
 Non-Parent Node Connection,PATROOM1_MULT10_FLR_4 ZN RETURN AIR NODE,AIRLOOPHVAC:ZONEMIXER,AIR LOOP HVAC ZONE MIXER 5,Inlet,1
 Non-Parent Node Connection,PATROOM2_FLR_4 ZN RETURN AIR NODE,AIRLOOPHVAC:ZONEMIXER,AIR LOOP HVAC ZONE MIXER 5,Inlet,1
 Non-Parent Node Connection,PATROOM3_MULT10_FLR_4 ZN RETURN AIR NODE,AIRLOOPHVAC:ZONEMIXER,AIR LOOP HVAC ZONE MIXER 5,Inlet,1
 Non-Parent Node Connection,PATROOM4_FLR_4 ZN RETURN AIR NODE,AIRLOOPHVAC:ZONEMIXER,AIR LOOP HVAC ZONE MIXER 5,Inlet,1
 Non-Parent Node Connection,PATROOM5_MULT10_FLR_4 ZN RETURN AIR NODE,AIRLOOPHVAC:ZONEMIXER,AIR LOOP HVAC ZONE MIXER 5,Inlet,1
 Non-Parent Node Connection,PATROOM6_FLR_4 ZN RETURN AIR NODE,AIRLOOPHVAC:ZONEMIXER,AIR LOOP HVAC ZONE MIXER 5,Inlet,1
 Non-Parent Node Connection,PATROOM7_MULT10_FLR_4 ZN RETURN AIR NODE,AIRLOOPHVAC:ZONEMIXER,AIR LOOP HVAC ZONE MIXER 5,Inlet,1
 Non-Parent Node Connection,PATROOM8_FLR_4 ZN RETURN AIR NODE,AIRLOOPHVAC:ZONEMIXER,AIR LOOP HVAC ZONE MIXER 5,Inlet,1
 Non-Parent Node Connection,CAV_KITCHEN MIXED AIR NODE,OUTDOORAIR:MIXER,CAV_KITCHEN OA SYSTEM OUTDOOR AIR MIXER,Outlet,1
 Non-Parent Node Connection,CAV_KITCHEN OUTDOOR AIR NODE,OUTDOORAIR:MIXER,CAV_KITCHEN OA SYSTEM OUTDOOR AIR MIXER,Inlet,1
 Non-Parent Node Connection,CAV_KITCHEN RELIEF AIR NODE,OUTDOORAIR:MIXER,CAV_KITCHEN OA SYSTEM OUTDOOR AIR MIXER,ReliefAir,1
 Non-Parent Node Connection,CAV_KITCHEN SUPPLY INLET NODE,OUTDOORAIR:MIXER,CAV_KITCHEN OA SYSTEM OUTDOOR AIR MIXER,Inlet,1
 Non-Parent Node Connection,VAV_1 MIXED AIR NODE,OUTDOORAIR:MIXER,VAV_1 OA SYSTEM OUTDOOR AIR MIXER,Outlet,1
 Non-Parent Node Connection,VAV_1 OUTDOOR AIR NODE,OUTDOORAIR:MIXER,VAV_1 OA SYSTEM OUTDOOR AIR MIXER,Inlet,1
 Non-Parent Node Connection,VAV_1 RELIEF AIR NODE,OUTDOORAIR:MIXER,VAV_1 OA SYSTEM OUTDOOR AIR MIXER,ReliefAir,1
 Non-Parent Node Connection,VAV_1 SUPPLY INLET NODE,OUTDOORAIR:MIXER,VAV_1 OA SYSTEM OUTDOOR AIR MIXER,Inlet,1
 Non-Parent Node Connection,VAV_2 MIXED AIR NODE,OUTDOORAIR:MIXER,VAV_2 OA SYSTEM OUTDOOR AIR MIXER,Outlet,1
 Non-Parent Node Connection,VAV_2 OUTDOOR AIR NODE,OUTDOORAIR:MIXER,VAV_2 OA SYSTEM OUTDOOR AIR MIXER,Inlet,1
 Non-Parent Node Connection,VAV_2 RELIEF AIR NODE,OUTDOORAIR:MIXER,VAV_2 OA SYSTEM OUTDOOR AIR MIXER,ReliefAir,1
 Non-Parent Node Connection,VAV_2 SUPPLY INLET NODE,OUTDOORAIR:MIXER,VAV_2 OA SYSTEM OUTDOOR AIR MIXER,Inlet,1
 Non-Parent Node Connection,VAV_ER MIXED AIR NODE,OUTDOORAIR:MIXER,VAV_ER OA SYSTEM OUTDOOR AIR MIXER,Outlet,1
 Non-Parent Node Connection,VAV_ER OUTDOOR AIR NODE,OUTDOORAIR:MIXER,VAV_ER OA SYSTEM OUTDOOR AIR MIXER,Inlet,1
 Non-Parent Node Connection,VAV_ER RELIEF AIR NODE,OUTDOORAIR:MIXER,VAV_ER OA SYSTEM OUTDOOR AIR MIXER,ReliefAir,1
 Non-Parent Node Connection,VAV_ER SUPPLY INLET NODE,OUTDOORAIR:MIXER,VAV_ER OA SYSTEM OUTDOOR AIR MIXER,Inlet,1
 Non-Parent Node Connection,VAV_ICU MIXED AIR NODE,OUTDOORAIR:MIXER,VAV_ICU OA SYSTEM OUTDOOR AIR MIXER,Outlet,1
 Non-Parent Node Connection,VAV_ICU OUTDOOR AIR NODE,OUTDOORAIR:MIXER,VAV_ICU OA SYSTEM OUTDOOR AIR MIXER,Inlet,1
 Non-Parent Node Connection,VAV_ICU RELIEF AIR NODE,OUTDOORAIR:MIXER,VAV_ICU OA SYSTEM OUTDOOR AIR MIXER,ReliefAir,1
 Non-Parent Node Connection,VAV_ICU SUPPLY INLET NODE,OUTDOORAIR:MIXER,VAV_ICU OA SYSTEM OUTDOOR AIR MIXER,Inlet,1
 Non-Parent Node Connection,VAV_LABS MIXED AIR NODE,OUTDOORAIR:MIXER,VAV_LABS OA SYSTEM OUTDOOR AIR MIXER,Outlet,1
 Non-Parent Node Connection,VAV_LABS OUTDOOR AIR NODE,OUTDOORAIR:MIXER,VAV_LABS OA SYSTEM OUTDOOR AIR MIXER,Inlet,1
 Non-Parent Node Connection,VAV_LABS RELIEF AIR NODE,OUTDOORAIR:MIXER,VAV_LABS OA SYSTEM OUTDOOR AIR MIXER,ReliefAir,1
 Non-Parent Node Connection,VAV_LABS SUPPLY INLET NODE,OUTDOORAIR:MIXER,VAV_LABS OA SYSTEM OUTDOOR AIR MIXER,Inlet,1
 Non-Parent Node Connection,VAV_OR MIXED AIR NODE,OUTDOORAIR:MIXER,VAV_OR OA SYSTEM OUTDOOR AIR MIXER,Outlet,1
 Non-Parent Node Connection,VAV_OR OUTDOOR AIR NODE,OUTDOORAIR:MIXER,VAV_OR OA SYSTEM OUTDOOR AIR MIXER,Inlet,1
 Non-Parent Node Connection,VAV_OR RELIEF AIR NODE,OUTDOORAIR:MIXER,VAV_OR OA SYSTEM OUTDOOR AIR MIXER,ReliefAir,1
 Non-Parent Node Connection,VAV_OR SUPPLY INLET NODE,OUTDOORAIR:MIXER,VAV_OR OA SYSTEM OUTDOOR AIR MIXER,Inlet,1
 Non-Parent Node Connection,VAV_PATRMS MIXED AIR NODE,OUTDOORAIR:MIXER,VAV_PATRMS OA SYSTEM OUTDOOR AIR MIXER,Outlet,1
 Non-Parent Node Connection,VAV_PATRMS OUTDOOR AIR NODE,OUTDOORAIR:MIXER,VAV_PATRMS OA SYSTEM OUTDOOR AIR MIXER,Inlet,1
 Non-Parent Node Connection,VAV_PATRMS RELIEF AIR NODE,OUTDOORAIR:MIXER,VAV_PATRMS OA SYSTEM OUTDOOR AIR MIXER,ReliefAir,1
 Non-Parent Node Connection,VAV_PATRMS SUPPLY INLET NODE,OUTDOORAIR:MIXER,VAV_PATRMS OA SYSTEM OUTDOOR AIR MIXER,Inlet,1
 Non-Parent Node Connection,CAV_KITCHEN MIXED AIR NODE,CONTROLLER:OUTDOORAIR,CAV_KITCHEN OA CONTROLLER,Sensor,1
 Non-Parent Node Connection,CAV_KITCHEN OUTDOOR AIR NODE,CONTROLLER:OUTDOORAIR,CAV_KITCHEN OA CONTROLLER,Actuator,1
 Non-Parent Node Connection,CAV_KITCHEN RELIEF AIR NODE,CONTROLLER:OUTDOORAIR,CAV_KITCHEN OA CONTROLLER,Actuator,1
 Non-Parent Node Connection,CAV_KITCHEN SUPPLY INLET NODE,CONTROLLER:OUTDOORAIR,CAV_KITCHEN OA CONTROLLER,Sensor,1
 Non-Parent Node Connection,VAV_1 MIXED AIR NODE,CONTROLLER:OUTDOORAIR,VAV_1 OA CONTROLLER,Sensor,1
 Non-Parent Node Connection,VAV_1 OUTDOOR AIR NODE,CONTROLLER:OUTDOORAIR,VAV_1 OA CONTROLLER,Actuator,1
 Non-Parent Node Connection,VAV_1 RELIEF AIR NODE,CONTROLLER:OUTDOORAIR,VAV_1 OA CONTROLLER,Actuator,1
 Non-Parent Node Connection,VAV_1 SUPPLY INLET NODE,CONTROLLER:OUTDOORAIR,VAV_1 OA CONTROLLER,Sensor,1
 Non-Parent Node Connection,VAV_2 MIXED AIR NODE,CONTROLLER:OUTDOORAIR,VAV_2 OA CONTROLLER,Sensor,1
 Non-Parent Node Connection,VAV_2 OUTDOOR AIR NODE,CONTROLLER:OUTDOORAIR,VAV_2 OA CONTROLLER,Actuator,1
 Non-Parent Node Connection,VAV_2 RELIEF AIR NODE,CONTROLLER:OUTDOORAIR,VAV_2 OA CONTROLLER,Actuator,1
 Non-Parent Node Connection,VAV_2 SUPPLY INLET NODE,CONTROLLER:OUTDOORAIR,VAV_2 OA CONTROLLER,Sensor,1
 Non-Parent Node Connection,VAV_ER MIXED AIR NODE,CONTROLLER:OUTDOORAIR,VAV_ER OA CONTROLLER,Sensor,1
 Non-Parent Node Connection,VAV_ER OUTDOOR AIR NODE,CONTROLLER:OUTDOORAIR,VAV_ER OA CONTROLLER,Actuator,1
 Non-Parent Node Connection,VAV_ER RELIEF AIR NODE,CONTROLLER:OUTDOORAIR,VAV_ER OA CONTROLLER,Actuator,1
 Non-Parent Node Connection,VAV_ER SUPPLY INLET NODE,CONTROLLER:OUTDOORAIR,VAV_ER OA CONTROLLER,Sensor,1
 Non-Parent Node Connection,VAV_ICU MIXED AIR NODE,CONTROLLER:OUTDOORAIR,VAV_ICU OA CONTROLLER,Sensor,1
 Non-Parent Node Connection,VAV_ICU OUTDOOR AIR NODE,CONTROLLER:OUTDOORAIR,VAV_ICU OA CONTROLLER,Actuator,1
 Non-Parent Node Connection,VAV_ICU RELIEF AIR NODE,CONTROLLER:OUTDOORAIR,VAV_ICU OA CONTROLLER,Actuator,1
 Non-Parent Node Connection,VAV_ICU SUPPLY INLET NODE,CONTROLLER:OUTDOORAIR,VAV_ICU OA CONTROLLER,Sensor,1
 Non-Parent Node Connection,VAV_LABS MIXED AIR NODE,CONTROLLER:OUTDOORAIR,VAV_LABS OA CONTROLLER,Sensor,1
 Non-Parent Node Connection,VAV_LABS OUTDOOR AIR NODE,CONTROLLER:OUTDOORAIR,VAV_LABS OA CONTROLLER,Actuator,1
 Non-Parent Node Connection,VAV_LABS RELIEF AIR NODE,CONTROLLER:OUTDOORAIR,VAV_LABS OA CONTROLLER,Actuator,1
 Non-Parent Node Connection,VAV_LABS SUPPLY INLET NODE,CONTROLLER:OUTDOORAIR,VAV_LABS OA CONTROLLER,Sensor,1
 Non-Parent Node Connection,VAV_OR MIXED AIR NODE,CONTROLLER:OUTDOORAIR,VAV_OR OA CONTROLLER,Sensor,1
 Non-Parent Node Connection,VAV_OR OUTDOOR AIR NODE,CONTROLLER:OUTDOORAIR,VAV_OR OA CONTROLLER,Actuator,1
 Non-Parent Node Connection,VAV_OR RELIEF AIR NODE,CONTROLLER:OUTDOORAIR,VAV_OR OA CONTROLLER,Actuator,1
 Non-Parent Node Connection,VAV_OR SUPPLY INLET NODE,CONTROLLER:OUTDOORAIR,VAV_OR OA CONTROLLER,Sensor,1
 Non-Parent Node Connection,VAV_PATRMS MIXED AIR NODE,CONTROLLER:OUTDOORAIR,VAV_PATRMS OA CONTROLLER,Sensor,1
 Non-Parent Node Connection,VAV_PATRMS OUTDOOR AIR NODE,CONTROLLER:OUTDOORAIR,VAV_PATRMS OA CONTROLLER,Actuator,1
 Non-Parent Node Connection,VAV_PATRMS RELIEF AIR NODE,CONTROLLER:OUTDOORAIR,VAV_PATRMS OA CONTROLLER,Actuator,1
 Non-Parent Node Connection,VAV_PATRMS SUPPLY INLET NODE,CONTROLLER:OUTDOORAIR,VAV_PATRMS OA CONTROLLER,Sensor,1
 Non-Parent Node Connection,VAV_ER MAIN HTG COIL OUTLET AIR NODE,HUMIDIFIER:STEAM:ELECTRIC,VAV_ER ELECTRIC STEAM HUMIDIFIER,Inlet,1
 Non-Parent Node Connection,VAV_ER ELECTRIC STEAM HUMIDIFIER OUTLET AIR NODE,HUMIDIFIER:STEAM:ELECTRIC,VAV_ER ELECTRIC STEAM HUMIDIFIER,Outlet,1
 Non-Parent Node Connection,VAV_ICU MAIN HTG COIL OUTLET AIR NODE,HUMIDIFIER:STEAM:ELECTRIC,VAV_ICU ELECTRIC STEAM HUMIDIFIER,Inlet,1
 Non-Parent Node Connection,VAV_ICU ELECTRIC STEAM HUMIDIFIER OUTLET AIR NODE,HUMIDIFIER:STEAM:ELECTRIC,VAV_ICU ELECTRIC STEAM HUMIDIFIER,Outlet,1
 Non-Parent Node Connection,VAV_LABS MAIN HTG COIL OUTLET AIR NODE,HUMIDIFIER:STEAM:ELECTRIC,VAV_LABS ELECTRIC STEAM HUMIDIFIER,Inlet,1
 Non-Parent Node Connection,VAV_LABS ELECTRIC STEAM HUMIDIFIER OUTLET AIR NODE,HUMIDIFIER:STEAM:ELECTRIC,VAV_LABS ELECTRIC STEAM HUMIDIFIER,Outlet,1
 Non-Parent Node Connection,VAV_OR MAIN HTG COIL OUTLET AIR NODE,HUMIDIFIER:STEAM:ELECTRIC,VAV_OR ELECTRIC STEAM HUMIDIFIER,Inlet,1
 Non-Parent Node Connection,VAV_OR ELECTRIC STEAM HUMIDIFIER OUTLET AIR NODE,HUMIDIFIER:STEAM:ELECTRIC,VAV_OR ELECTRIC STEAM HUMIDIFIER,Outlet,1
 Non-Parent Node Connection,VAV_PATRMS MAIN HTG COIL OUTLET AIR NODE,HUMIDIFIER:STEAM:ELECTRIC,VAV_PATRMS ELECTRIC STEAM HUMIDIFIER,Inlet,1
 Non-Parent Node Connection,VAV_PATRMS ELECTRIC STEAM HUMIDIFIER OUTLET AIR NODE,HUMIDIFIER:STEAM:ELECTRIC,VAV_PATRMS ELECTRIC STEAM HUMIDIFIER,Outlet,1
 Non-Parent Node Connection,VAV_ER FAN OUTLET AIR NODE,COIL:HEATING:ELECTRIC,ER_EXAM3_MULT4_FLR_1 ELECTRIC HTG COIL,Inlet,1
 Non-Parent Node Connection,ER_EXAM3_MULT4_FLR_1 ELECTRIC HTG COIL OUTLET AIR NODE,COIL:HEATING:ELECTRIC,ER_EXAM3_MULT4_FLR_1 ELECTRIC HTG COIL,Outlet,1
 Non-Parent Node Connection,ER_EXAM3_MULT4_FLR_1 ELECTRIC HTG COIL OUTLET AIR NODE,COIL:HEATING:ELECTRIC,ER_EXAM3_MULT4_FLR_1 ELECTRIC HTG COIL,Sensor,1
 Non-Parent Node Connection,VAV_ICU FAN OUTLET AIR NODE,COIL:HEATING:ELECTRIC,ICU_FLR_2 ELECTRIC HTG COIL,Inlet,1
 Non-Parent Node Connection,ICU_FLR_2 ELECTRIC HTG COIL OUTLET AIR NODE,COIL:HEATING:ELECTRIC,ICU_FLR_2 ELECTRIC HTG COIL,Outlet,1
 Non-Parent Node Connection,ICU_FLR_2 ELECTRIC HTG COIL OUTLET AIR NODE,COIL:HEATING:ELECTRIC,ICU_FLR_2 ELECTRIC HTG COIL,Sensor,1
 Non-Parent Node Connection,VAV_LABS FAN OUTLET AIR NODE,COIL:HEATING:ELECTRIC,LAB_FLR_3 ELECTRIC HTG COIL,Inlet,1
 Non-Parent Node Connection,LAB_FLR_3 ELECTRIC HTG COIL OUTLET AIR NODE,COIL:HEATING:ELECTRIC,LAB_FLR_3 ELECTRIC HTG COIL,Outlet,1
 Non-Parent Node Connection,LAB_FLR_3 ELECTRIC HTG COIL OUTLET AIR NODE,COIL:HEATING:ELECTRIC,LAB_FLR_3 ELECTRIC HTG COIL,Sensor,1
 Non-Parent Node Connection,VAV_OR FAN OUTLET AIR NODE,COIL:HEATING:ELECTRIC,OR2_MULT5_FLR_2 ELECTRIC HTG COIL,Inlet,1
 Non-Parent Node Connection,OR2_MULT5_FLR_2 ELECTRIC HTG COIL OUTLET AIR NODE,COIL:HEATING:ELECTRIC,OR2_MULT5_FLR_2 ELECTRIC HTG COIL,Outlet,1
 Non-Parent Node Connection,OR2_MULT5_FLR_2 ELECTRIC HTG COIL OUTLET AIR NODE,COIL:HEATING:ELECTRIC,OR2_MULT5_FLR_2 ELECTRIC HTG COIL,Sensor,1
 Non-Parent Node Connection,VAV_PATRMS FAN OUTLET AIR NODE,COIL:HEATING:ELECTRIC,PATROOM5_MULT10_FLR_4 ELECTRIC HTG COIL,Inlet,1
 Non-Parent Node Connection,PATROOM5_MULT10_FLR_4 ELECTRIC HTG COIL OUTLET AIR NODE,COIL:HEATING:ELECTRIC,PATROOM5_MULT10_FLR_4 ELECTRIC HTG COIL,Outlet,1
 Non-Parent Node Connection,PATROOM5_MULT10_FLR_4 ELECTRIC HTG COIL OUTLET AIR NODE,COIL:HEATING:ELECTRIC,PATROOM5_MULT10_FLR_4 ELECTRIC HTG COIL,Sensor,1
 Non-Parent Node Connection,CHILLED WATER LOOP SECONDARY PUMP INLET WATER NODE,PUMP:VARIABLESPEED,CHILLED WATER LOOP SECONDARY PUMP,Inlet,1
 Non-Parent Node Connection,CHILLED WATER LOOP SECONDARY PUMP OUTLET WATER NODE,PUMP:VARIABLESPEED,CHILLED WATER LOOP SECONDARY PUMP,Outlet,1
 Non-Parent Node Connection,HOT WATER LOOP SUPPLY INLET NODE,PUMP:VARIABLESPEED,HOT WATER LOOP PUMP,Inlet,1
 Non-Parent Node Connection,HOT WATER LOOP PUMP OUTLET WATER NODE,PUMP:VARIABLESPEED,HOT WATER LOOP PUMP,Outlet,1
 Non-Parent Node Connection,LAUNDRY SERVICE WATER LOOP SUPPLY INLET NODE,PUMP:VARIABLESPEED,LAUNDRY SERVICE WATER LOOP WATER MAINS PRESSURE DRIVEN,Inlet,1
 Non-Parent Node Connection,LAUNDRY SERVICE WATER LOOP WATER MAINS PRESSURE DRIVEN OUTLET WATER NODE,PUMP:VARIABLESPEED,LAUNDRY SERVICE WATER LOOP WATER MAINS PRESSURE DRIVEN,Outlet,1
 Non-Parent Node Connection,BOOSTER WATER LOOP PUMP INLET WATER NODE,PUMP:VARIABLESPEED,BOOSTER WATER LOOP PUMP,Inlet,1
 Non-Parent Node Connection,BOOSTER WATER LOOP PUMP OUTLET WATER NODE,PUMP:VARIABLESPEED,BOOSTER WATER LOOP PUMP,Outlet,1
 Non-Parent Node Connection,CHILLED WATER LOOP SUPPLY INLET NODE,PUMP:CONSTANTSPEED,CHILLED WATER LOOP PRIMARY PUMP,Inlet,1
 Non-Parent Node Connection,CHILLED WATER LOOP PRIMARY PUMP OUTLET WATER NODE,PUMP:CONSTANTSPEED,CHILLED WATER LOOP PRIMARY PUMP,Outlet,1
 Non-Parent Node Connection,CONDENSER WATER LOOP SUPPLY INLET NODE,PUMP:CONSTANTSPEED,CONDENSER WATER LOOP CONSTANT PUMP,Inlet,1
 Non-Parent Node Connection,CONDENSER WATER LOOP CONSTANT PUMP OUTLET WATER NODE,PUMP:CONSTANTSPEED,CONDENSER WATER LOOP CONSTANT PUMP,Outlet,1
 Non-Parent Node Connection,MAIN SERVICE WATER LOOP SUPPLY INLET NODE,PUMP:CONSTANTSPEED,MAIN SERVICE WATER LOOP CIRCULATOR PUMP,Inlet,1
 Non-Parent Node Connection,MAIN SERVICE WATER LOOP CIRCULATOR PUMP OUTLET WATER NODE,PUMP:CONSTANTSPEED,MAIN SERVICE WATER LOOP CIRCULATOR PUMP,Outlet,1
