Program Version,EnergyPlus, Version 9.6.0-4b123cf80f, YMD=2022.03.25 18:57,
   ************* Beginning Zone Sizing Calculations
   ** Warning ** Weather file location will be used rather than entered (IDF) Location object.
   **   ~~~   ** ..Location object=EL PASO INTERNATIONAL AP  UT_TX_USA
   **   ~~~   ** ..Weather File Location=Red Bluff Municipal Arpt CA USA TMY3 WMO#=725910
   **   ~~~   ** ..due to location differences, Latitude difference=[8.38] degrees, Longitude difference=[15.75] degrees.
   **   ~~~   ** ..Time Zone difference=[1.0] hour(s), Elevation difference=[91.06] percent, [1080.00] meters.
   ** Warning ** SetUpDesignDay: Entered DesignDay Barometric Pressure=87865 differs by more than 10% from Standard Barometric Pressure=100058.
   **   ~~~   ** ...occurs in DesignDay=EL PASO INTERNATIONAL AP  UT ANN CLG .4% CONDNS DB=>MWB, Standard Pressure (based on elevation) will be used.
   ** Warning ** ProcessScheduleInput: Schedule:Day:Interval="ECONOMIZER MAX OA FRACTION 70 PCT DEFAULT", Blank Schedule Type Limits Name input -- will not be validated.
   ** Warning ** ProcessScheduleInput: DecodeHHMMField, Invalid "until" field value is not a multiple of the minutes for each timestep: 00:59
   **   ~~~   ** Other errors may result. Occurred in Day Schedule=REFRIGERATION DEFROST SCHEDULE DEFAULT
   ** Warning ** ProcessScheduleInput: DecodeHHMMField, Invalid "until" field value is not a multiple of the minutes for each timestep: 00:59
   **   ~~~   ** Other errors may result. Occurred in Day Schedule=REFRIGERATION DEFROST SCHEDULE DEFAULT 1
   ** Warning ** ProcessScheduleInput: DecodeHHMMField, Invalid "until" field value is not a multiple of the minutes for each timestep: 00:59
   **   ~~~   ** Other errors may result. Occurred in Day Schedule=REFRIGERATION DEFROST SCHEDULE DEFAULT 2
   ** Warning ** ProcessScheduleInput: DecodeHHMMField, Invalid "until" field value is not a multiple of the minutes for each timestep: 10:59
   **   ~~~   ** Other errors may result. Occurred in Day Schedule=REFRIGERATION DEFROST SCHEDULE DEFAULT 2
   ** Warning ** ProcessScheduleInput: DecodeHHMMField, Invalid "until" field value is not a multiple of the minutes for each timestep: 00:59
   **   ~~~   ** Other errors may result. Occurred in Day Schedule=REFRIGERATION DEFROST SCHEDULE DEFAULT 3
   ** Warning ** ProcessScheduleInput: DecodeHHMMField, Invalid "until" field value is not a multiple of the minutes for each timestep: 10:59
   **   ~~~   ** Other errors may result. Occurred in Day Schedule=REFRIGERATION DEFROST SCHEDULE DEFAULT 3
   ** Warning ** ProcessScheduleInput: Schedule:Constant="ALWAYS OFF DISCRETE", Blank Schedule Type Limits Name input -- will not be validated.
   ** Warning ** ProcessScheduleInput: Schedule:Constant="ALWAYS ON CONTINUOUS", Blank Schedule Type Limits Name input -- will not be validated.
   ** Warning ** GetHTSurfaceData: Surfaces with interface to Ground found but no "Ground Temperatures" were input.
   **   ~~~   ** Found first in surface=BASEMENT_FLOOR
   **   ~~~   ** Defaults, constant throughout the year of (18.0) will be used.
   ** Warning ** CheckConvexity: Zone="CORRIDOR_FLR_5 ZN", Surface="CORRIDOR_FLR_5_CEILING" is non-convex.
   **   ~~~   ** ...vertex 2 to vertex 3 to vertex 4
   **   ~~~   ** ...vertex 2=[-42.67,15.24,21.34]
   **   ~~~   ** ...vertex 3=[-42.67,39.62,21.34]
   **   ~~~   ** ...vertex 4=[-53.34,39.62,21.34]
   ** Warning ** GetSurfaceData: InterZone Surface Areas do not match as expected and might not satisfy conservation of energy:
   **   ~~~   **   Area=19.5, Multipliers=1, Total Area=19.5 in Surface=CORRIDOR_FLR_1_WALL_EAST Zone=CORRIDOR_FLR_1 ZN
   **   ~~~   **   Area=19.5, Multipliers=4, Total Area=78.0 in Surface=ER_EXAM1_MULT4_FLR_1_WALL_WEST Zone=ER_EXAM1_MULT4_FLR_1 ZN
   ** Warning ** GetSurfaceData: InterZone Surface Areas do not match as expected and might not satisfy conservation of energy:
   **   ~~~   **   Area=19.5, Multipliers=1, Total Area=19.5 in Surface=SURFACE 26 Zone=CORRIDOR_FLR_1 ZN
   **   ~~~   **   Area=19.5, Multipliers=4, Total Area=78.0 in Surface=ER_TRIAGE_MULT4_FLR_1_WALL_WEST Zone=ER_TRIAGE_MULT4_FLR_1 ZN
   ** Warning ** GetSurfaceData: InterZone Surface Areas do not match as expected and might not satisfy conservation of energy:
   **   ~~~   **   Area=19.5, Multipliers=1, Total Area=19.5 in Surface=CORRIDOR_FLR_2_WALL_WEST Zone=CORRIDOR_FLR_2 ZN
   **   ~~~   **   Area=19.5, Multipliers=5, Total Area=97.5 in Surface=IC_PATROOM1_MULT5_FLR_2_WALL_EAST Zone=IC_PATROOM1_MULT5_FLR_2 ZN
   ** Warning ** GetSurfaceData: InterZone Surface Areas do not match as expected and might not satisfy conservation of energy:
   **   ~~~   **   Area=13.0, Multipliers=1, Total Area=13.0 in Surface=CORRIDOR_FLR_5_WALL_2_NORTH Zone=CORRIDOR_FLR_5 ZN
   **   ~~~   **   Area=13.0, Multipliers=6, Total Area=78.0 in Surface=OFFICE4_MULT6_FLR_5_WALL_SOUTH Zone=OFFICE4_MULT6_FLR_5 ZN
   ** Warning ** GetSurfaceData: InterZone Surface Areas do not match as expected and might not satisfy conservation of energy:
   **   ~~~   **   Area=32.5, Multipliers=1, Total Area=32.5 in Surface=SURFACE 132 Zone=CORRIDOR_FLR_5 ZN
   **   ~~~   **   Area=32.5, Multipliers=5, Total Area=162.5 in Surface=OFFICE2_MULT5_FLR_5_WALL_EAST Zone=OFFICE2_MULT5_FLR_5 ZN
   ** Warning ** GetSurfaceData: InterZone Surface Areas do not match as expected and might not satisfy conservation of energy:
   **   ~~~   **   Area=19.5, Multipliers=1, Total Area=19.5 in Surface=CORRIDOR_NW_FLR_3_WALL_2_EAST Zone=CORRIDOR_NW_FLR_3 ZN
   **   ~~~   **   Area=19.5, Multipliers=10, Total Area=195.1 in Surface=PATROOM5_MULT10_FLR_3_WALL_WEST Zone=PATROOM5_MULT10_FLR_3 ZN
   ** Warning ** GetSurfaceData: InterZone Surface Areas do not match as expected and might not satisfy conservation of energy:
   **   ~~~   **   Area=19.5, Multipliers=1, Total Area=19.5 in Surface=CORRIDOR_NW_FLR_3_WALL_3_NORTH Zone=CORRIDOR_NW_FLR_3 ZN
   **   ~~~   **   Area=19.5, Multipliers=10, Total Area=195.1 in Surface=PATROOM5_MULT10_FLR_3_WALL_SOUTH Zone=PATROOM5_MULT10_FLR_3 ZN
   ** Warning ** GetSurfaceData: InterZone Surface Areas do not match as expected and might not satisfy conservation of energy:
   **   ~~~   **   Area=20.9, Multipliers=1, Total Area=20.9 in Surface=SURFACE 72 Zone=CORRIDOR_NW_FLR_3 ZN
   **   ~~~   **   Area=20.9, Multipliers=5, Total Area=104.5 in Surface=OR2_MULT5_FLR_2_CEILING Zone=OR2_MULT5_FLR_2 ZN
   ** Warning ** GetSurfaceData: InterZone Surface Areas do not match as expected and might not satisfy conservation of energy:
   **   ~~~   **   Area=19.5, Multipliers=1, Total Area=19.5 in Surface=CORRIDOR_NW_FLR_4_WALL_2_EAST Zone=CORRIDOR_NW_FLR_4 ZN
   **   ~~~   **   Area=19.5, Multipliers=10, Total Area=195.1 in Surface=PATROOM5_MULT10_FLR_4_WALL_WEST Zone=PATROOM5_MULT10_FLR_4 ZN
   ** Warning ** GetSurfaceData: InterZone Surface Areas do not match as expected and might not satisfy conservation of energy:
   **   ~~~   **   Area=19.5, Multipliers=1, Total Area=19.5 in Surface=CORRIDOR_NW_FLR_4_WALL_3_NORTH Zone=CORRIDOR_NW_FLR_4 ZN
   **   ~~~   **   Area=19.5, Multipliers=10, Total Area=195.1 in Surface=PATROOM5_MULT10_FLR_4_WALL_SOUTH Zone=PATROOM5_MULT10_FLR_4 ZN
   ** Warning ** GetSurfaceData: InterZone Surface Areas do not match as expected and might not satisfy conservation of energy:
   **   ~~~   **   Area=20.9, Multipliers=1, Total Area=20.9 in Surface=SURFACE 97 Zone=CORRIDOR_NW_FLR_4 ZN
   **   ~~~   **   Area=20.9, Multipliers=5, Total Area=104.5 in Surface=SURFACE 86 Zone=OFFICE2_MULT5_FLR_5 ZN
   ** Warning ** GetSurfaceData: InterZone Surface Areas do not match as expected and might not satisfy conservation of energy:
   **   ~~~   **   Area=18.8, Multipliers=1, Total Area=18.8 in Surface=CORRIDOR_SE_FLR_3_WALL_1_EAST Zone=CORRIDOR_SE_FLR_3 ZN
   **   ~~~   **   Area=18.8, Multipliers=10, Total Area=188.6 in Surface=PATROOM3_MULT10_FLR_3_WALL_WEST Zone=PATROOM3_MULT10_FLR_3 ZN
   ** Warning ** GetSurfaceData: InterZone Surface Areas do not match as expected and might not satisfy conservation of energy:
   **   ~~~   **   Area=19.5, Multipliers=1, Total Area=19.5 in Surface=CORRIDOR_SE_FLR_3_WALL_2_EAST Zone=CORRIDOR_SE_FLR_3 ZN
   **   ~~~   **   Area=19.5, Multipliers=10, Total Area=195.1 in Surface=PATROOM1_MULT10_FLR_3_WALL_WEST Zone=PATROOM1_MULT10_FLR_3 ZN
   ** Warning ** GetSurfaceData: InterZone Surface Areas do not match as expected and might not satisfy conservation of energy:
   **   ~~~   **   Area=19.5, Multipliers=1, Total Area=19.5 in Surface=CORRIDOR_SE_FLR_3_WALL_3_SOUTH Zone=CORRIDOR_SE_FLR_3 ZN
   **   ~~~   **   Area=19.5, Multipliers=10, Total Area=195.1 in Surface=PATROOM1_MULT10_FLR_3_WALL_NORTH Zone=PATROOM1_MULT10_FLR_3 ZN
   ** Warning ** GetSurfaceData: InterZone Surface Areas do not match as expected and might not satisfy conservation of energy:
   **   ~~~   **   Area=18.8, Multipliers=1, Total Area=18.8 in Surface=CORRIDOR_SE_FLR_3_WALL_3_WEST Zone=CORRIDOR_SE_FLR_3 ZN
   **   ~~~   **   Area=18.8, Multipliers=10, Total Area=188.6 in Surface=PATROOM7_MULT10_FLR_3_WALL_EAST Zone=PATROOM7_MULT10_FLR_3 ZN
   ** Warning ** GetSurfaceData: InterZone Surface Areas do not match as expected and might not satisfy conservation of energy:
   **   ~~~   **   Area=6.9, Multipliers=1, Total Area=6.9 in Surface=SURFACE 120 Zone=CORRIDOR_SE_FLR_3 ZN
   **   ~~~   **   Area=6.9, Multipliers=5, Total Area=34.8 in Surface=SURFACE 80 Zone=OR2_MULT5_FLR_2 ZN
   ** Warning ** GetSurfaceData: InterZone Surface Areas do not match as expected and might not satisfy conservation of energy:
   **   ~~~   **   Area=18.8, Multipliers=1, Total Area=18.8 in Surface=CORRIDOR_SE_FLR_4_WALL_1_EAST Zone=CORRIDOR_SE_FLR_4 ZN
   **   ~~~   **   Area=18.8, Multipliers=10, Total Area=188.6 in Surface=PATROOM3_MULT10_FLR_4_WALL_WEST Zone=PATROOM3_MULT10_FLR_4 ZN
   ** Warning ** GetSurfaceData: InterZone Surface Areas do not match as expected and might not satisfy conservation of energy:
   **   ~~~   **   Area=19.5, Multipliers=1, Total Area=19.5 in Surface=CORRIDOR_SE_FLR_4_WALL_2_EAST Zone=CORRIDOR_SE_FLR_4 ZN
   **   ~~~   **   Area=19.5, Multipliers=10, Total Area=195.1 in Surface=PATROOM1_MULT10_FLR_4_WALL_WEST Zone=PATROOM1_MULT10_FLR_4 ZN
   ** Warning ** GetSurfaceData: InterZone Surface Areas do not match as expected and might not satisfy conservation of energy:
   **   ~~~   **   Area=18.8, Multipliers=1, Total Area=18.8 in Surface=CORRIDOR_SE_FLR_4_WALL_3_WEST Zone=CORRIDOR_SE_FLR_4 ZN
   **   ~~~   **   Area=18.8, Multipliers=10, Total Area=188.6 in Surface=PATROOM7_MULT10_FLR_4_WALL_EAST Zone=PATROOM7_MULT10_FLR_4 ZN
   ** Warning ** GetSurfaceData: InterZone Surface Areas do not match as expected and might not satisfy conservation of energy:
   **   ~~~   **   Area=19.5, Multipliers=1, Total Area=19.5 in Surface=SURFACE 142 Zone=CORRIDOR_SE_FLR_4 ZN
   **   ~~~   **   Area=19.5, Multipliers=10, Total Area=195.1 in Surface=PATROOM1_MULT10_FLR_4_WALL_NORTH Zone=PATROOM1_MULT10_FLR_4 ZN
   ** Warning ** GetSurfaceData: InterZone Surface Areas do not match as expected and might not satisfy conservation of energy:
   **   ~~~   **   Area=13.9, Multipliers=1, Total Area=13.9 in Surface=SURFACE 137 Zone=CORRIDOR_SE_FLR_4 ZN
   **   ~~~   **   Area=13.9, Multipliers=5, Total Area=69.6 in Surface=SURFACE 100 Zone=OFFICE2_MULT5_FLR_5 ZN
   ** Warning ** GetSurfaceData: InterZone Surface Areas do not match as expected and might not satisfy conservation of energy:
   **   ~~~   **   Area=20.2, Multipliers=1, Total Area=20.2 in Surface=SURFACE 55 Zone=DINING_FLR_5 ZN
   **   ~~~   **   Area=20.2, Multipliers=10, Total Area=202.0 in Surface=PATROOM3_MULT10_FLR_4_CEILING Zone=PATROOM3_MULT10_FLR_4 ZN
   ** Warning ** GetSurfaceData: InterZone Surface Areas do not match as expected and might not satisfy conservation of energy:
   **   ~~~   **   Area=20.9, Multipliers=1, Total Area=20.9 in Surface=SURFACE 60 Zone=DINING_FLR_5 ZN
   **   ~~~   **   Area=20.9, Multipliers=10, Total Area=209.0 in Surface=PATROOM1_MULT10_FLR_4_CEILING Zone=PATROOM1_MULT10_FLR_4 ZN
   ** Warning ** GetSurfaceData: InterZone Surface Areas do not match as expected and might not satisfy conservation of energy:
   **   ~~~   **   Area=26.0, Multipliers=4, Total Area=104.0 in Surface=ER_EXAM1_MULT4_FLR_1_WALL_NORTH Zone=ER_EXAM1_MULT4_FLR_1 ZN
   **   ~~~   **   Area=26.0, Multipliers=1, Total Area=26.0 in Surface=ER_NURSESTN_LOBBY_FLR_1_WALL_1_SOUTH Zone=ER_NURSESTN_LOBBY_FLR_1 ZN
   ** Warning ** GetSurfaceData: InterZone Surface Areas do not match as expected and might not satisfy conservation of energy:
   **   ~~~   **   Area=27.8, Multipliers=4, Total Area=111.4 in Surface=ER_EXAM1_MULT4_FLR_1_CEILING Zone=ER_EXAM1_MULT4_FLR_1 ZN
   **   ~~~   **   Area=27.8, Multipliers=1, Total Area=27.8 in Surface=SURFACE 30 Zone=OR_NURSESTN_LOBBY_FLR_2 ZN
   ** Warning ** GetSurfaceData: InterZone Surface Areas do not match as expected and might not satisfy conservation of energy:
   **   ~~~   **   Area=26.0, Multipliers=4, Total Area=104.0 in Surface=ER_EXAM3_MULT4_FLR_1_WALL_SOUTH Zone=ER_EXAM3_MULT4_FLR_1 ZN
   **   ~~~   **   Area=26.0, Multipliers=1, Total Area=26.0 in Surface=ER_TRAUMA1_FLR_1_WALL_NORTH Zone=ER_TRAUMA1_FLR_1 ZN
   ** Warning ** GetSurfaceData: InterZone Surface Areas do not match as expected and might not satisfy conservation of energy:
   **   ~~~   **   Area=19.5, Multipliers=4, Total Area=78.0 in Surface=ER_EXAM3_MULT4_FLR_1_WALL_WEST Zone=ER_EXAM3_MULT4_FLR_1 ZN
   **   ~~~   **   Area=19.5, Multipliers=1, Total Area=19.5 in Surface=ER_NURSESTN_LOBBY_FLR_1_WALL_2_EAST Zone=ER_NURSESTN_LOBBY_FLR_1 ZN
   ** Warning ** GetSurfaceData: InterZone Surface Areas do not match as expected and might not satisfy conservation of energy:
   **   ~~~   **   Area=27.8, Multipliers=4, Total Area=111.4 in Surface=ER_EXAM3_MULT4_FLR_1_CEILING Zone=ER_EXAM3_MULT4_FLR_1 ZN
   **   ~~~   **   Area=27.8, Multipliers=1, Total Area=27.8 in Surface=OR_NURSESTN_LOBBY_FLR_2_FLOOR Zone=OR_NURSESTN_LOBBY_FLR_2 ZN
   ** Warning ** GetSurfaceData: InterZone Surface Areas do not match as expected and might not satisfy conservation of energy:
   **   ~~~   **   Area=26.0, Multipliers=1, Total Area=26.0 in Surface=ER_NURSESTN_LOBBY_FLR_1_WALL_1_NORTH Zone=ER_NURSESTN_LOBBY_FLR_1 ZN
   **   ~~~   **   Area=26.0, Multipliers=4, Total Area=104.0 in Surface=ER_TRIAGE_MULT4_FLR_1_WALL_SOUTH Zone=ER_TRIAGE_MULT4_FLR_1 ZN
   ** Warning ** GetSurfaceData: InterZone Surface Areas do not match as expected and might not satisfy conservation of energy:
   **   ~~~   **   Area=18.5, Multipliers=1, Total Area=18.5 in Surface=SURFACE 115 Zone=ER_NURSESTN_LOBBY_FLR_1 ZN
   **   ~~~   **   Area=18.5, Multipliers=5, Total Area=92.9 in Surface=OR2_MULT5_FLR_2_FLOOR Zone=OR2_MULT5_FLR_2 ZN
   ** Warning ** GetSurfaceData: InterZone Surface Areas do not match as expected and might not satisfy conservation of energy:
   **   ~~~   **   Area=27.8, Multipliers=4, Total Area=111.4 in Surface=ER_TRIAGE_MULT4_FLR_1_CEILING Zone=ER_TRIAGE_MULT4_FLR_1 ZN
   **   ~~~   **   Area=27.8, Multipliers=1, Total Area=27.8 in Surface=OR3_FLR_2_FLOOR Zone=OR3_FLR_2 ZN
   ** Warning ** GetSurfaceData: InterZone Surface Areas do not match as expected and might not satisfy conservation of energy:
   **   ~~~   **   Area=13.9, Multipliers=1, Total Area=13.9 in Surface=ICU_FLR_2_FLOOR Zone=ICU_FLR_2 ZN
   **   ~~~   **   Area=13.9, Multipliers=5, Total Area=69.6 in Surface=OFFICE1_MULT4_FLR_1_CEILING Zone=OFFICE1_MULT4_FLR_1 ZN
   ** Warning ** GetSurfaceData: InterZone Surface Areas do not match as expected and might not satisfy conservation of energy:
   **   ~~~   **   Area=20.2, Multipliers=1, Total Area=20.2 in Surface=SURFACE 93 Zone=ICU_FLR_2 ZN
   **   ~~~   **   Area=20.2, Multipliers=10, Total Area=202.0 in Surface=PATROOM7_MULT10_FLR_3_FLOOR Zone=PATROOM7_MULT10_FLR_3 ZN
   ** Warning ** GetSurfaceData: InterZone Surface Areas do not match as expected and might not satisfy conservation of energy:
   **   ~~~   **   Area=19.5, Multipliers=1, Total Area=19.5 in Surface=ICU_NURSESTN_LOBBY_FLR_2_WALL_NORTH Zone=ICU_NURSESTN_LOBBY_FLR_2 ZN
   **   ~~~   **   Area=19.5, Multipliers=5, Total Area=97.5 in Surface=IC_PATROOM1_MULT5_FLR_2_WALL_SOUTH Zone=IC_PATROOM1_MULT5_FLR_2 ZN
   ** Warning ** GetSurfaceData: InterZone Surface Areas do not match as expected and might not satisfy conservation of energy:
   **   ~~~   **   Area=19.5, Multipliers=1, Total Area=19.5 in Surface=ICU_NURSESTN_LOBBY_FLR_2_WALL_WEST Zone=ICU_NURSESTN_LOBBY_FLR_2 ZN
   **   ~~~   **   Area=19.5, Multipliers=6, Total Area=117.0 in Surface=IC_PATROOM3_MULT6_FLR_2_WALL_EAST Zone=IC_PATROOM3_MULT6_FLR_2 ZN
   ** Warning ** GetSurfaceData: InterZone Surface Areas do not match as expected and might not satisfy conservation of energy:
   **   ~~~   **   Area=20.9, Multipliers=5, Total Area=104.5 in Surface=IC_PATROOM1_MULT5_FLR_2_FLOOR Zone=IC_PATROOM1_MULT5_FLR_2 ZN
   **   ~~~   **   Area=20.9, Multipliers=1, Total Area=20.9 in Surface=LOBBY_RECORDS_FLR_1_CEILING_7 Zone=LOBBY_RECORDS_FLR_1 ZN
   ** Warning ** GetSurfaceData: InterZone Surface Areas do not match as expected and might not satisfy conservation of energy:
   **   ~~~   **   Area=19.5, Multipliers=1, Total Area=19.5 in Surface=SURFACE 157 Zone=IC_PATROOM2_FLR_2 ZN
   **   ~~~   **   Area=19.5, Multipliers=6, Total Area=117.0 in Surface=IC_PATROOM3_MULT6_FLR_2_WALL_NORTH Zone=IC_PATROOM3_MULT6_FLR_2 ZN
   ** Warning ** GetSurfaceData: InterZone Surface Areas do not match as expected and might not satisfy conservation of energy:
   **   ~~~   **   Area=20.9, Multipliers=6, Total Area=125.4 in Surface=IC_PATROOM3_MULT6_FLR_2_FLOOR Zone=IC_PATROOM3_MULT6_FLR_2 ZN
   **   ~~~   **   Area=20.9, Multipliers=1, Total Area=20.9 in Surface=LOBBY_RECORDS_FLR_1_CEILING_4 Zone=LOBBY_RECORDS_FLR_1 ZN
   ** Warning ** GetSurfaceData: InterZone Surface Areas do not match as expected and might not satisfy conservation of energy:
   **   ~~~   **   Area=20.9, Multipliers=1, Total Area=20.9 in Surface=KITCHEN_FLR_5_FLOOR Zone=KITCHEN_FLR_5 ZN
   **   ~~~   **   Area=20.9, Multipliers=10, Total Area=209.0 in Surface=PATROOM5_MULT10_FLR_4_CEILING Zone=PATROOM5_MULT10_FLR_4 ZN
   ** Warning ** GetSurfaceData: InterZone Surface Areas do not match as expected and might not satisfy conservation of energy:
   **   ~~~   **   Area=19.5, Multipliers=1, Total Area=19.5 in Surface=LOBBY_RECORDS_FLR_1_WALL_3_EAST Zone=LOBBY_RECORDS_FLR_1 ZN
   **   ~~~   **   Area=19.5, Multipliers=5, Total Area=97.5 in Surface=OFFICE1_MULT4_FLR_1_WALL_WEST Zone=OFFICE1_MULT4_FLR_1 ZN
   ** Warning ** GetSurfaceData: InterZone Surface Areas do not match as expected and might not satisfy conservation of energy:
   **   ~~~   **   Area=13.0, Multipliers=1, Total Area=13.0 in Surface=LOBBY_RECORDS_FLR_1_WALL_3_SOUTH Zone=LOBBY_RECORDS_FLR_1 ZN
   **   ~~~   **   Area=13.0, Multipliers=5, Total Area=65.0 in Surface=OFFICE1_MULT4_FLR_1_WALL_NORTH Zone=OFFICE1_MULT4_FLR_1 ZN
   ** Warning ** GetSurfaceData: InterZone Surface Areas do not match as expected and might not satisfy conservation of energy:
   **   ~~~   **   Area=39.0, Multipliers=1, Total Area=39.0 in Surface=OFFICE1_FLR_5_WALL_NORTH Zone=OFFICE1_FLR_5 ZN
   **   ~~~   **   Area=39.0, Multipliers=5, Total Area=195.1 in Surface=OFFICE2_MULT5_FLR_5_WALL_SOUTH Zone=OFFICE2_MULT5_FLR_5 ZN
   ** Warning ** GetSurfaceData: InterZone Surface Areas do not match as expected and might not satisfy conservation of energy:
   **   ~~~   **   Area=13.9, Multipliers=1, Total Area=13.9 in Surface=SURFACE 21 Zone=OFFICE1_FLR_5 ZN
   **   ~~~   **   Area=13.9, Multipliers=10, Total Area=139.4 in Surface=PATROOM7_MULT10_FLR_4_CEILING Zone=PATROOM7_MULT10_FLR_4 ZN
   ** Warning ** GetSurfaceData: InterZone Surface Areas do not match as expected and might not satisfy conservation of energy:
   **   ~~~   **   Area=6.2, Multipliers=5, Total Area=31.3 in Surface=OFFICE2_MULT5_FLR_5_FLOOR Zone=OFFICE2_MULT5_FLR_5 ZN
   **   ~~~   **   Area=6.2, Multipliers=10, Total Area=62.6 in Surface=SURFACE 83 Zone=PATROOM7_MULT10_FLR_4 ZN
   ** Warning ** GetSurfaceData: InterZone Surface Areas do not match as expected and might not satisfy conservation of energy:
   **   ~~~   **   Area=19.5, Multipliers=1, Total Area=19.5 in Surface=SURFACE 141 Zone=OFFICE3_FLR_5 ZN
   **   ~~~   **   Area=19.5, Multipliers=6, Total Area=117.0 in Surface=OFFICE4_MULT6_FLR_5_WALL_WEST Zone=OFFICE4_MULT6_FLR_5 ZN
   ** Warning ** GetSurfaceData: InterZone Surface Areas do not match as expected and might not satisfy conservation of energy:
   **   ~~~   **   Area=39.0, Multipliers=1, Total Area=39.0 in Surface=OR1_FLR_2_WALL_SOUTH Zone=OR1_FLR_2 ZN
   **   ~~~   **   Area=39.0, Multipliers=5, Total Area=195.1 in Surface=OR2_MULT5_FLR_2_WALL_NORTH Zone=OR2_MULT5_FLR_2 ZN
   ** Warning ** GetSurfaceData: InterZone Surface Areas do not match as expected and might not satisfy conservation of energy:
   **   ~~~   **   Area=26.0, Multipliers=5, Total Area=130.0 in Surface=OR2_MULT5_FLR_2_WALL_WEST Zone=OR2_MULT5_FLR_2 ZN
   **   ~~~   **   Area=26.0, Multipliers=1, Total Area=26.0 in Surface=SURFACE 5 Zone=OR_NURSESTN_LOBBY_FLR_2 ZN
   ** Warning ** GetSurfaceData: InterZone Surface Areas do not match as expected and might not satisfy conservation of energy:
   **   ~~~   **   Area=20.9, Multipliers=1, Total Area=20.9 in Surface=OR3_FLR_2_CEILING Zone=OR3_FLR_2 ZN
   **   ~~~   **   Area=20.9, Multipliers=10, Total Area=209.0 in Surface=PATROOM5_MULT10_FLR_3_FLOOR Zone=PATROOM5_MULT10_FLR_3 ZN
   ** Warning ** GetSurfaceData: InterZone Surface Areas do not match as expected and might not satisfy conservation of energy:
   **   ~~~   **   Area=20.2, Multipliers=1, Total Area=20.2 in Surface=OR_NURSESTN_LOBBY_FLR_2_CEILING Zone=OR_NURSESTN_LOBBY_FLR_2 ZN
   **   ~~~   **   Area=20.2, Multipliers=10, Total Area=202.0 in Surface=PATROOM3_MULT10_FLR_3_FLOOR Zone=PATROOM3_MULT10_FLR_3 ZN
   ** Warning ** GetSurfaceData: InterZone Surface Areas do not match as expected and might not satisfy conservation of energy:
   **   ~~~   **   Area=20.9, Multipliers=1, Total Area=20.9 in Surface=SURFACE 74 Zone=OR_NURSESTN_LOBBY_FLR_2 ZN
   **   ~~~   **   Area=20.9, Multipliers=10, Total Area=209.0 in Surface=PATROOM1_MULT10_FLR_3_FLOOR Zone=PATROOM1_MULT10_FLR_3 ZN
   ** Warning ** GetSurfaceData: InterZone Surface Areas do not match as expected and might not satisfy conservation of energy:
   **   ~~~   **   Area=19.5, Multipliers=1, Total Area=19.5 in Surface=PATROOM2_FLR_3_WALL_NORTH Zone=PATROOM2_FLR_3 ZN
   **   ~~~   **   Area=19.5, Multipliers=10, Total Area=195.1 in Surface=PATROOM3_MULT10_FLR_3_WALL_SOUTH Zone=PATROOM3_MULT10_FLR_3 ZN
   ** Warning ** GetSurfaceData: InterZone Surface Areas do not match as expected and might not satisfy conservation of energy:
   **   ~~~   **   Area=19.5, Multipliers=1, Total Area=19.5 in Surface=PATROOM2_FLR_4_WALL_NORTH Zone=PATROOM2_FLR_4 ZN
   **   ~~~   **   Area=19.5, Multipliers=10, Total Area=195.1 in Surface=PATROOM3_MULT10_FLR_4_WALL_SOUTH Zone=PATROOM3_MULT10_FLR_4 ZN
   ** Warning ** GetSurfaceData: InterZone Surface Areas do not match as expected and might not satisfy conservation of energy:
   **   ~~~   **   Area=19.5, Multipliers=1, Total Area=19.5 in Surface=PATROOM6_FLR_3_WALL_NORTH Zone=PATROOM6_FLR_3 ZN
   **   ~~~   **   Area=19.5, Multipliers=10, Total Area=195.1 in Surface=PATROOM7_MULT10_FLR_3_WALL_SOUTH Zone=PATROOM7_MULT10_FLR_3 ZN
   ** Warning ** GetSurfaceData: InterZone Surface Areas do not match as expected and might not satisfy conservation of energy:
   **   ~~~   **   Area=19.5, Multipliers=1, Total Area=19.5 in Surface=PATROOM6_FLR_4_WALL_NORTH Zone=PATROOM6_FLR_4 ZN
   **   ~~~   **   Area=19.5, Multipliers=10, Total Area=195.1 in Surface=PATROOM7_MULT10_FLR_4_WALL_SOUTH Zone=PATROOM7_MULT10_FLR_4 ZN
   ** Warning ** CheckUsedConstructions: There are 13 nominally unused constructions in input.
   **   ~~~   ** Each Unused construction is shown.
   ************* Construction=SMALLHOTEL 2010 SLAB FLOOR
   ************* Construction=TYPICAL IEAD ROOF - HIGHLY REFLECTIVE R-20.83 1
   ************* Construction=TYPICAL INSULATED BASEMENT MASS WALL
   ************* Construction=TYPICAL INSULATED EXTERIOR MASS FLOOR R-11.49
   ************* Construction=TYPICAL INSULATED EXTERIOR MASS FLOOR R-9.35
   ************* Construction=TYPICAL INSULATED METAL DOOR R-1.43 1
   ************* Construction=TYPICAL INTERIOR DOOR
   ************* Construction=TYPICAL INTERIOR PARTITION
   ************* Construction=TYPICAL INTERIOR WINDOW
   ************* Construction=TYPICAL OVERHEAD DOOR R-0.86 1
   ************* Construction=U 0.88 SHGC 0.16 SGL REF-A-L CLR 6MM
   ************* Construction=U 1.17 SHGC 0.39 SIMPLE GLAZING SKYLIGHT U-1.17 SHGC 0.39
   ************* Construction=U 1.17 SHGC 0.39 SIMPLE GLAZING SKYLIGHT U-1.17 SHGC 0.39 1
   ** Warning ** GetInternalHeatGains: People="HOSPITAL BASEMENT PEOPLE" has comfort related schedules but no thermal comfort model selected.
   **   ~~~   ** If schedules are specified for air velocity, clothing insulation, and/or work efficiency but no thermal comfort
   **   ~~~   ** thermal comfort model is selected, the schedules will be listed as unused schedules in the .err file.
   **   ~~~   ** To avoid these errors, select a valid thermal comfort model or eliminate these schedules in the PEOPLE input.
   ** Warning ** GetInternalHeatGains: People="HOSPITAL CORRIDOR PEOPLE" has comfort related schedules but no thermal comfort model selected.
   **   ~~~   ** If schedules are specified for air velocity, clothing insulation, and/or work efficiency but no thermal comfort
   **   ~~~   ** thermal comfort model is selected, the schedules will be listed as unused schedules in the .err file.
   **   ~~~   ** To avoid these errors, select a valid thermal comfort model or eliminate these schedules in the PEOPLE input.
   ** Warning ** GetInternalHeatGains: People="HOSPITAL CORRIDOR PEOPLE" has comfort related schedules but no thermal comfort model selected.
   **   ~~~   ** If schedules are specified for air velocity, clothing insulation, and/or work efficiency but no thermal comfort
   **   ~~~   ** thermal comfort model is selected, the schedules will be listed as unused schedules in the .err file.
   **   ~~~   ** To avoid these errors, select a valid thermal comfort model or eliminate these schedules in the PEOPLE input.
   ** Warning ** GetInternalHeatGains: People="HOSPITAL CORRIDOR PEOPLE" has comfort related schedules but no thermal comfort model selected.
   **   ~~~   ** If schedules are specified for air velocity, clothing insulation, and/or work efficiency but no thermal comfort
   **   ~~~   ** thermal comfort model is selected, the schedules will be listed as unused schedules in the .err file.
   **   ~~~   ** To avoid these errors, select a valid thermal comfort model or eliminate these schedules in the PEOPLE input.
   ** Warning ** GetInternalHeatGains: People="HOSPITAL CORRIDOR PEOPLE" has comfort related schedules but no thermal comfort model selected.
   **   ~~~   ** If schedules are specified for air velocity, clothing insulation, and/or work efficiency but no thermal comfort
   **   ~~~   ** thermal comfort model is selected, the schedules will be listed as unused schedules in the .err file.
   **   ~~~   ** To avoid these errors, select a valid thermal comfort model or eliminate these schedules in the PEOPLE input.
   ** Warning ** GetInternalHeatGains: People="HOSPITAL CORRIDOR PEOPLE" has comfort related schedules but no thermal comfort model selected.
   **   ~~~   ** If schedules are specified for air velocity, clothing insulation, and/or work efficiency but no thermal comfort
   **   ~~~   ** thermal comfort model is selected, the schedules will be listed as unused schedules in the .err file.
   **   ~~~   ** To avoid these errors, select a valid thermal comfort model or eliminate these schedules in the PEOPLE input.
   ** Warning ** GetInternalHeatGains: People="HOSPITAL CORRIDOR PEOPLE" has comfort related schedules but no thermal comfort model selected.
   **   ~~~   ** If schedules are specified for air velocity, clothing insulation, and/or work efficiency but no thermal comfort
   **   ~~~   ** thermal comfort model is selected, the schedules will be listed as unused schedules in the .err file.
   **   ~~~   ** To avoid these errors, select a valid thermal comfort model or eliminate these schedules in the PEOPLE input.
   ** Warning ** GetInternalHeatGains: People="HOSPITAL CORRIDOR PEOPLE" has comfort related schedules but no thermal comfort model selected.
   **   ~~~   ** If schedules are specified for air velocity, clothing insulation, and/or work efficiency but no thermal comfort
   **   ~~~   ** thermal comfort model is selected, the schedules will be listed as unused schedules in the .err file.
   **   ~~~   ** To avoid these errors, select a valid thermal comfort model or eliminate these schedules in the PEOPLE input.
   ** Warning ** GetInternalHeatGains: People="HOSPITAL DINING PEOPLE" has comfort related schedules but no thermal comfort model selected.
   **   ~~~   ** If schedules are specified for air velocity, clothing insulation, and/or work efficiency but no thermal comfort
   **   ~~~   ** thermal comfort model is selected, the schedules will be listed as unused schedules in the .err file.
   **   ~~~   ** To avoid these errors, select a valid thermal comfort model or eliminate these schedules in the PEOPLE input.
   ** Warning ** GetInternalHeatGains: People="HOSPITAL ER_EXAM PEOPLE" has comfort related schedules but no thermal comfort model selected.
   **   ~~~   ** If schedules are specified for air velocity, clothing insulation, and/or work efficiency but no thermal comfort
   **   ~~~   ** thermal comfort model is selected, the schedules will be listed as unused schedules in the .err file.
   **   ~~~   ** To avoid these errors, select a valid thermal comfort model or eliminate these schedules in the PEOPLE input.
   ** Warning ** GetInternalHeatGains: People="HOSPITAL ER_EXAM PEOPLE" has comfort related schedules but no thermal comfort model selected.
   **   ~~~   ** If schedules are specified for air velocity, clothing insulation, and/or work efficiency but no thermal comfort
   **   ~~~   ** thermal comfort model is selected, the schedules will be listed as unused schedules in the .err file.
   **   ~~~   ** To avoid these errors, select a valid thermal comfort model or eliminate these schedules in the PEOPLE input.
   ** Warning ** GetInternalHeatGains: People="HOSPITAL ER_NURSESTN PEOPLE" has comfort related schedules but no thermal comfort model selected.
   **   ~~~   ** If schedules are specified for air velocity, clothing insulation, and/or work efficiency but no thermal comfort
   **   ~~~   ** thermal comfort model is selected, the schedules will be listed as unused schedules in the .err file.
   **   ~~~   ** To avoid these errors, select a valid thermal comfort model or eliminate these schedules in the PEOPLE input.
   ** Warning ** GetInternalHeatGains: People="HOSPITAL ER_TRAUMA PEOPLE" has comfort related schedules but no thermal comfort model selected.
   **   ~~~   ** If schedules are specified for air velocity, clothing insulation, and/or work efficiency but no thermal comfort
   **   ~~~   ** thermal comfort model is selected, the schedules will be listed as unused schedules in the .err file.
   **   ~~~   ** To avoid these errors, select a valid thermal comfort model or eliminate these schedules in the PEOPLE input.
   ** Warning ** GetInternalHeatGains: People="HOSPITAL ER_TRAUMA PEOPLE" has comfort related schedules but no thermal comfort model selected.
   **   ~~~   ** If schedules are specified for air velocity, clothing insulation, and/or work efficiency but no thermal comfort
   **   ~~~   ** thermal comfort model is selected, the schedules will be listed as unused schedules in the .err file.
   **   ~~~   ** To avoid these errors, select a valid thermal comfort model or eliminate these schedules in the PEOPLE input.
   ** Warning ** GetInternalHeatGains: People="HOSPITAL ER_TRIAGE PEOPLE" has comfort related schedules but no thermal comfort model selected.
   **   ~~~   ** If schedules are specified for air velocity, clothing insulation, and/or work efficiency but no thermal comfort
   **   ~~~   ** thermal comfort model is selected, the schedules will be listed as unused schedules in the .err file.
   **   ~~~   ** To avoid these errors, select a valid thermal comfort model or eliminate these schedules in the PEOPLE input.
   ** Warning ** GetInternalHeatGains: People="HOSPITAL ICU_NURSESTN PEOPLE" has comfort related schedules but no thermal comfort model selected.
   **   ~~~   ** If schedules are specified for air velocity, clothing insulation, and/or work efficiency but no thermal comfort
   **   ~~~   ** thermal comfort model is selected, the schedules will be listed as unused schedules in the .err file.
   **   ~~~   ** To avoid these errors, select a valid thermal comfort model or eliminate these schedules in the PEOPLE input.
   ** Warning ** GetInternalHeatGains: People="HOSPITAL ICU_OPEN PEOPLE" has comfort related schedules but no thermal comfort model selected.
   **   ~~~   ** If schedules are specified for air velocity, clothing insulation, and/or work efficiency but no thermal comfort
   **   ~~~   ** thermal comfort model is selected, the schedules will be listed as unused schedules in the .err file.
   **   ~~~   ** To avoid these errors, select a valid thermal comfort model or eliminate these schedules in the PEOPLE input.
   ** Warning ** GetInternalHeatGains: People="HOSPITAL ICU_PATRM PEOPLE" has comfort related schedules but no thermal comfort model selected.
   **   ~~~   ** If schedules are specified for air velocity, clothing insulation, and/or work efficiency but no thermal comfort
   **   ~~~   ** thermal comfort model is selected, the schedules will be listed as unused schedules in the .err file.
   **   ~~~   ** To avoid these errors, select a valid thermal comfort model or eliminate these schedules in the PEOPLE input.
   ** Warning ** GetInternalHeatGains: People="HOSPITAL ICU_PATRM PEOPLE" has comfort related schedules but no thermal comfort model selected.
   **   ~~~   ** If schedules are specified for air velocity, clothing insulation, and/or work efficiency but no thermal comfort
   **   ~~~   ** thermal comfort model is selected, the schedules will be listed as unused schedules in the .err file.
   **   ~~~   ** To avoid these errors, select a valid thermal comfort model or eliminate these schedules in the PEOPLE input.
   ** Warning ** GetInternalHeatGains: People="HOSPITAL ICU_PATRM PEOPLE" has comfort related schedules but no thermal comfort model selected.
   **   ~~~   ** If schedules are specified for air velocity, clothing insulation, and/or work efficiency but no thermal comfort
   **   ~~~   ** thermal comfort model is selected, the schedules will be listed as unused schedules in the .err file.
   **   ~~~   ** To avoid these errors, select a valid thermal comfort model or eliminate these schedules in the PEOPLE input.
   ** Warning ** GetInternalHeatGains: People="HOSPITAL KITCHEN PEOPLE" has comfort related schedules but no thermal comfort model selected.
   **   ~~~   ** If schedules are specified for air velocity, clothing insulation, and/or work efficiency but no thermal comfort
   **   ~~~   ** thermal comfort model is selected, the schedules will be listed as unused schedules in the .err file.
   **   ~~~   ** To avoid these errors, select a valid thermal comfort model or eliminate these schedules in the PEOPLE input.
   ** Warning ** GetInternalHeatGains: People="HOSPITAL LAB PEOPLE" has comfort related schedules but no thermal comfort model selected.
   **   ~~~   ** If schedules are specified for air velocity, clothing insulation, and/or work efficiency but no thermal comfort
   **   ~~~   ** thermal comfort model is selected, the schedules will be listed as unused schedules in the .err file.
   **   ~~~   ** To avoid these errors, select a valid thermal comfort model or eliminate these schedules in the PEOPLE input.
   ** Warning ** GetInternalHeatGains: People="HOSPITAL LAB PEOPLE" has comfort related schedules but no thermal comfort model selected.
   **   ~~~   ** If schedules are specified for air velocity, clothing insulation, and/or work efficiency but no thermal comfort
   **   ~~~   ** thermal comfort model is selected, the schedules will be listed as unused schedules in the .err file.
   **   ~~~   ** To avoid these errors, select a valid thermal comfort model or eliminate these schedules in the PEOPLE input.
   ** Warning ** GetInternalHeatGains: People="HOSPITAL LOBBY PEOPLE" has comfort related schedules but no thermal comfort model selected.
   **   ~~~   ** If schedules are specified for air velocity, clothing insulation, and/or work efficiency but no thermal comfort
   **   ~~~   ** thermal comfort model is selected, the schedules will be listed as unused schedules in the .err file.
   **   ~~~   ** To avoid these errors, select a valid thermal comfort model or eliminate these schedules in the PEOPLE input.
   ** Warning ** GetInternalHeatGains: People="HOSPITAL NURSESTN PEOPLE" has comfort related schedules but no thermal comfort model selected.
   **   ~~~   ** If schedules are specified for air velocity, clothing insulation, and/or work efficiency but no thermal comfort
   **   ~~~   ** thermal comfort model is selected, the schedules will be listed as unused schedules in the .err file.
   **   ~~~   ** To avoid these errors, select a valid thermal comfort model or eliminate these schedules in the PEOPLE input.
   ** Warning ** GetInternalHeatGains: People="HOSPITAL NURSESTN PEOPLE" has comfort related schedules but no thermal comfort model selected.
   **   ~~~   ** If schedules are specified for air velocity, clothing insulation, and/or work efficiency but no thermal comfort
   **   ~~~   ** thermal comfort model is selected, the schedules will be listed as unused schedules in the .err file.
   **   ~~~   ** To avoid these errors, select a valid thermal comfort model or eliminate these schedules in the PEOPLE input.
   ** Warning ** GetInternalHeatGains: People="HOSPITAL NURSESTN PEOPLE" has comfort related schedules but no thermal comfort model selected.
   **   ~~~   ** If schedules are specified for air velocity, clothing insulation, and/or work efficiency but no thermal comfort
   **   ~~~   ** thermal comfort model is selected, the schedules will be listed as unused schedules in the .err file.
   **   ~~~   ** To avoid these errors, select a valid thermal comfort model or eliminate these schedules in the PEOPLE input.
   ** Warning ** GetInternalHeatGains: People="HOSPITAL NURSESTN PEOPLE" has comfort related schedules but no thermal comfort model selected.
   **   ~~~   ** If schedules are specified for air velocity, clothing insulation, and/or work efficiency but no thermal comfort
   **   ~~~   ** thermal comfort model is selected, the schedules will be listed as unused schedules in the .err file.
   **   ~~~   ** To avoid these errors, select a valid thermal comfort model or eliminate these schedules in the PEOPLE input.
   ** Warning ** GetInternalHeatGains: People="HOSPITAL OFFICE PEOPLE" has comfort related schedules but no thermal comfort model selected.
   **   ~~~   ** If schedules are specified for air velocity, clothing insulation, and/or work efficiency but no thermal comfort
   **   ~~~   ** thermal comfort model is selected, the schedules will be listed as unused schedules in the .err file.
   **   ~~~   ** To avoid these errors, select a valid thermal comfort model or eliminate these schedules in the PEOPLE input.
   ** Warning ** GetInternalHeatGains: People="HOSPITAL OFFICE PEOPLE" has comfort related schedules but no thermal comfort model selected.
   **   ~~~   ** If schedules are specified for air velocity, clothing insulation, and/or work efficiency but no thermal comfort
   **   ~~~   ** thermal comfort model is selected, the schedules will be listed as unused schedules in the .err file.
   **   ~~~   ** To avoid these errors, select a valid thermal comfort model or eliminate these schedules in the PEOPLE input.
   ** Warning ** GetInternalHeatGains: People="HOSPITAL OFFICE PEOPLE" has comfort related schedules but no thermal comfort model selected.
   **   ~~~   ** If schedules are specified for air velocity, clothing insulation, and/or work efficiency but no thermal comfort
   **   ~~~   ** thermal comfort model is selected, the schedules will be listed as unused schedules in the .err file.
   **   ~~~   ** To avoid these errors, select a valid thermal comfort model or eliminate these schedules in the PEOPLE input.
   ** Warning ** GetInternalHeatGains: People="HOSPITAL OFFICE PEOPLE" has comfort related schedules but no thermal comfort model selected.
   **   ~~~   ** If schedules are specified for air velocity, clothing insulation, and/or work efficiency but no thermal comfort
   **   ~~~   ** thermal comfort model is selected, the schedules will be listed as unused schedules in the .err file.
   **   ~~~   ** To avoid these errors, select a valid thermal comfort model or eliminate these schedules in the PEOPLE input.
   ** Warning ** GetInternalHeatGains: People="HOSPITAL OFFICE PEOPLE" has comfort related schedules but no thermal comfort model selected.
   **   ~~~   ** If schedules are specified for air velocity, clothing insulation, and/or work efficiency but no thermal comfort
   **   ~~~   ** thermal comfort model is selected, the schedules will be listed as unused schedules in the .err file.
   **   ~~~   ** To avoid these errors, select a valid thermal comfort model or eliminate these schedules in the PEOPLE input.
   ** Warning ** GetInternalHeatGains: People="HOSPITAL OR PEOPLE" has comfort related schedules but no thermal comfort model selected.
   **   ~~~   ** If schedules are specified for air velocity, clothing insulation, and/or work efficiency but no thermal comfort
   **   ~~~   ** thermal comfort model is selected, the schedules will be listed as unused schedules in the .err file.
   **   ~~~   ** To avoid these errors, select a valid thermal comfort model or eliminate these schedules in the PEOPLE input.
   ** Warning ** GetInternalHeatGains: People="HOSPITAL OR PEOPLE" has comfort related schedules but no thermal comfort model selected.
   **   ~~~   ** If schedules are specified for air velocity, clothing insulation, and/or work efficiency but no thermal comfort
   **   ~~~   ** thermal comfort model is selected, the schedules will be listed as unused schedules in the .err file.
   **   ~~~   ** To avoid these errors, select a valid thermal comfort model or eliminate these schedules in the PEOPLE input.
   ** Warning ** GetInternalHeatGains: People="HOSPITAL OR PEOPLE" has comfort related schedules but no thermal comfort model selected.
   **   ~~~   ** If schedules are specified for air velocity, clothing insulation, and/or work efficiency but no thermal comfort
   **   ~~~   ** thermal comfort model is selected, the schedules will be listed as unused schedules in the .err file.
   **   ~~~   ** To avoid these errors, select a valid thermal comfort model or eliminate these schedules in the PEOPLE input.
   ** Warning ** GetInternalHeatGains: People="HOSPITAL OR PEOPLE" has comfort related schedules but no thermal comfort model selected.
   **   ~~~   ** If schedules are specified for air velocity, clothing insulation, and/or work efficiency but no thermal comfort
   **   ~~~   ** thermal comfort model is selected, the schedules will be listed as unused schedules in the .err file.
   **   ~~~   ** To avoid these errors, select a valid thermal comfort model or eliminate these schedules in the PEOPLE input.
   ** Warning ** GetInternalHeatGains: People="HOSPITAL PATROOM PEOPLE" has comfort related schedules but no thermal comfort model selected.
   **   ~~~   ** If schedules are specified for air velocity, clothing insulation, and/or work efficiency but no thermal comfort
   **   ~~~   ** thermal comfort model is selected, the schedules will be listed as unused schedules in the .err file.
   **   ~~~   ** To avoid these errors, select a valid thermal comfort model or eliminate these schedules in the PEOPLE input.
   ** Warning ** GetInternalHeatGains: People="HOSPITAL PATROOM PEOPLE" has comfort related schedules but no thermal comfort model selected.
   **   ~~~   ** If schedules are specified for air velocity, clothing insulation, and/or work efficiency but no thermal comfort
   **   ~~~   ** thermal comfort model is selected, the schedules will be listed as unused schedules in the .err file.
   **   ~~~   ** To avoid these errors, select a valid thermal comfort model or eliminate these schedules in the PEOPLE input.
   ** Warning ** GetInternalHeatGains: People="HOSPITAL PATROOM PEOPLE" has comfort related schedules but no thermal comfort model selected.
   **   ~~~   ** If schedules are specified for air velocity, clothing insulation, and/or work efficiency but no thermal comfort
   **   ~~~   ** thermal comfort model is selected, the schedules will be listed as unused schedules in the .err file.
   **   ~~~   ** To avoid these errors, select a valid thermal comfort model or eliminate these schedules in the PEOPLE input.
   ** Warning ** GetInternalHeatGains: People="HOSPITAL PATROOM PEOPLE" has comfort related schedules but no thermal comfort model selected.
   **   ~~~   ** If schedules are specified for air velocity, clothing insulation, and/or work efficiency but no thermal comfort
   **   ~~~   ** thermal comfort model is selected, the schedules will be listed as unused schedules in the .err file.
   **   ~~~   ** To avoid these errors, select a valid thermal comfort model or eliminate these schedules in the PEOPLE input.
   ** Warning ** GetInternalHeatGains: People="HOSPITAL PATROOM PEOPLE" has comfort related schedules but no thermal comfort model selected.
   **   ~~~   ** If schedules are specified for air velocity, clothing insulation, and/or work efficiency but no thermal comfort
   **   ~~~   ** thermal comfort model is selected, the schedules will be listed as unused schedules in the .err file.
   **   ~~~   ** To avoid these errors, select a valid thermal comfort model or eliminate these schedules in the PEOPLE input.
   ** Warning ** GetInternalHeatGains: People="HOSPITAL PATROOM PEOPLE" has comfort related schedules but no thermal comfort model selected.
   **   ~~~   ** If schedules are specified for air velocity, clothing insulation, and/or work efficiency but no thermal comfort
   **   ~~~   ** thermal comfort model is selected, the schedules will be listed as unused schedules in the .err file.
   **   ~~~   ** To avoid these errors, select a valid thermal comfort model or eliminate these schedules in the PEOPLE input.
   ** Warning ** GetInternalHeatGains: People="HOSPITAL PATROOM PEOPLE" has comfort related schedules but no thermal comfort model selected.
   **   ~~~   ** If schedules are specified for air velocity, clothing insulation, and/or work efficiency but no thermal comfort
   **   ~~~   ** thermal comfort model is selected, the schedules will be listed as unused schedules in the .err file.
   **   ~~~   ** To avoid these errors, select a valid thermal comfort model or eliminate these schedules in the PEOPLE input.
   ** Warning ** GetInternalHeatGains: People="HOSPITAL PATROOM PEOPLE" has comfort related schedules but no thermal comfort model selected.
   **   ~~~   ** If schedules are specified for air velocity, clothing insulation, and/or work efficiency but no thermal comfort
   **   ~~~   ** thermal comfort model is selected, the schedules will be listed as unused schedules in the .err file.
   **   ~~~   ** To avoid these errors, select a valid thermal comfort model or eliminate these schedules in the PEOPLE input.
   ** Warning ** GetInternalHeatGains: People="HOSPITAL PATROOM PEOPLE" has comfort related schedules but no thermal comfort model selected.
   **   ~~~   ** If schedules are specified for air velocity, clothing insulation, and/or work efficiency but no thermal comfort
   **   ~~~   ** thermal comfort model is selected, the schedules will be listed as unused schedules in the .err file.
   **   ~~~   ** To avoid these errors, select a valid thermal comfort model or eliminate these schedules in the PEOPLE input.
   ** Warning ** GetInternalHeatGains: People="HOSPITAL PATROOM PEOPLE" has comfort related schedules but no thermal comfort model selected.
   **   ~~~   ** If schedules are specified for air velocity, clothing insulation, and/or work efficiency but no thermal comfort
   **   ~~~   ** thermal comfort model is selected, the schedules will be listed as unused schedules in the .err file.
   **   ~~~   ** To avoid these errors, select a valid thermal comfort model or eliminate these schedules in the PEOPLE input.
   ** Warning ** GetInternalHeatGains: People="HOSPITAL PATROOM PEOPLE" has comfort related schedules but no thermal comfort model selected.
   **   ~~~   ** If schedules are specified for air velocity, clothing insulation, and/or work efficiency but no thermal comfort
   **   ~~~   ** thermal comfort model is selected, the schedules will be listed as unused schedules in the .err file.
   **   ~~~   ** To avoid these errors, select a valid thermal comfort model or eliminate these schedules in the PEOPLE input.
   ** Warning ** GetInternalHeatGains: People="HOSPITAL PATROOM PEOPLE" has comfort related schedules but no thermal comfort model selected.
   **   ~~~   ** If schedules are specified for air velocity, clothing insulation, and/or work efficiency but no thermal comfort
   **   ~~~   ** thermal comfort model is selected, the schedules will be listed as unused schedules in the .err file.
   **   ~~~   ** To avoid these errors, select a valid thermal comfort model or eliminate these schedules in the PEOPLE input.
   ** Warning ** GetInternalHeatGains: People="HOSPITAL PATROOM PEOPLE" has comfort related schedules but no thermal comfort model selected.
   **   ~~~   ** If schedules are specified for air velocity, clothing insulation, and/or work efficiency but no thermal comfort
   **   ~~~   ** thermal comfort model is selected, the schedules will be listed as unused schedules in the .err file.
   **   ~~~   ** To avoid these errors, select a valid thermal comfort model or eliminate these schedules in the PEOPLE input.
   ** Warning ** GetInternalHeatGains: People="HOSPITAL PATROOM PEOPLE" has comfort related schedules but no thermal comfort model selected.
   **   ~~~   ** If schedules are specified for air velocity, clothing insulation, and/or work efficiency but no thermal comfort
   **   ~~~   ** thermal comfort model is selected, the schedules will be listed as unused schedules in the .err file.
   **   ~~~   ** To avoid these errors, select a valid thermal comfort model or eliminate these schedules in the PEOPLE input.
   ** Warning ** GetInternalHeatGains: People="HOSPITAL PATROOM PEOPLE" has comfort related schedules but no thermal comfort model selected.
   **   ~~~   ** If schedules are specified for air velocity, clothing insulation, and/or work efficiency but no thermal comfort
   **   ~~~   ** thermal comfort model is selected, the schedules will be listed as unused schedules in the .err file.
   **   ~~~   ** To avoid these errors, select a valid thermal comfort model or eliminate these schedules in the PEOPLE input.
   ** Warning ** GetInternalHeatGains: People="HOSPITAL PATROOM PEOPLE" has comfort related schedules but no thermal comfort model selected.
   **   ~~~   ** If schedules are specified for air velocity, clothing insulation, and/or work efficiency but no thermal comfort
   **   ~~~   ** thermal comfort model is selected, the schedules will be listed as unused schedules in the .err file.
   **   ~~~   ** To avoid these errors, select a valid thermal comfort model or eliminate these schedules in the PEOPLE input.
   ** Warning ** GetInternalHeatGains: People="HOSPITAL PHYSTHERAPY PEOPLE" has comfort related schedules but no thermal comfort model selected.
   **   ~~~   ** If schedules are specified for air velocity, clothing insulation, and/or work efficiency but no thermal comfort
   **   ~~~   ** thermal comfort model is selected, the schedules will be listed as unused schedules in the .err file.
   **   ~~~   ** To avoid these errors, select a valid thermal comfort model or eliminate these schedules in the PEOPLE input.
   ** Warning ** GetInternalHeatGains: People="HOSPITAL RADIOLOGY PEOPLE" has comfort related schedules but no thermal comfort model selected.
   **   ~~~   ** If schedules are specified for air velocity, clothing insulation, and/or work efficiency but no thermal comfort
   **   ~~~   ** thermal comfort model is selected, the schedules will be listed as unused schedules in the .err file.
   **   ~~~   ** To avoid these errors, select a valid thermal comfort model or eliminate these schedules in the PEOPLE input.
   ** Warning ** Seems like you already tried to get a Handle on this Actuator 1times.
   **   ~~~   ** Occurred for componentType='SCHEDULE:YEAR', controlType='SCHEDULE VALUE', uniqueKey='HOSPITAL CLGSETP_SCH'.
   **   ~~~   ** You should take note that there is a risk of overwritting.
   ** Warning ** Seems like you already tried to get a Handle on this Actuator 1times.
   **   ~~~   ** Occurred for componentType='SCHEDULE:YEAR', controlType='SCHEDULE VALUE', uniqueKey='HOSPITAL HTGSETP_SCH'.
   **   ~~~   ** You should take note that there is a risk of overwritting.
   ** Warning ** Seems like you already tried to get a Handle on this Actuator 2times.
   **   ~~~   ** Occurred for componentType='SCHEDULE:YEAR', controlType='SCHEDULE VALUE', uniqueKey='HOSPITAL CLGSETP_SCH'.
   **   ~~~   ** You should take note that there is a risk of overwritting.
   ** Warning ** Seems like you already tried to get a Handle on this Actuator 2times.
   **   ~~~   ** Occurred for componentType='SCHEDULE:YEAR', controlType='SCHEDULE VALUE', uniqueKey='HOSPITAL HTGSETP_SCH'.
   **   ~~~   ** You should take note that there is a risk of overwritting.
   ** Warning ** Seems like you already tried to get a Handle on this Actuator 3times.
   **   ~~~   ** Occurred for componentType='SCHEDULE:YEAR', controlType='SCHEDULE VALUE', uniqueKey='HOSPITAL CLGSETP_SCH'.
   **   ~~~   ** You should take note that there is a risk of overwritting.
   ** Warning ** Seems like you already tried to get a Handle on this Actuator 3times.
   **   ~~~   ** Occurred for componentType='SCHEDULE:YEAR', controlType='SCHEDULE VALUE', uniqueKey='HOSPITAL HTGSETP_SCH'.
   **   ~~~   ** You should take note that there is a risk of overwritting.
   ** Warning ** GetDaylightingControls: Fraction of zone or space controlled by the Daylighting reference points is < 1.0.
   **   ~~~   ** ..discovered in Daylighting:Controls="LOBBY_RECORDS_FLR_1 ZN DAYLIGHTINGCONTROLS", only 7.600E-002 of the zone or space is controlled.
   ** Warning ** GetDaylightingControls: Fraction of zone or space controlled by the Daylighting reference points is < 1.0.
   **   ~~~   ** ..discovered in Daylighting:Controls="OFFICE1_FLR_5 ZN DAYLIGHTINGCONTROLS", only 0.448 of the zone or space is controlled.
   ** Warning ** GetDaylightingControls: Fraction of zone or space controlled by the Daylighting reference points is < 1.0.
   **   ~~~   ** ..discovered in Daylighting:Controls="OFFICE3_FLR_5 ZN DAYLIGHTINGCONTROLS", only 0.448 of the zone or space is controlled.
   ** Warning ** SetUpDesignDay: Entered DesignDay Barometric Pressure=87865 differs by more than 10% from Standard Barometric Pressure=100058.
   **   ~~~   ** ...occurs in DesignDay=EL PASO INTERNATIONAL AP  UT ANN HTG 99.6% CONDNS DB, Standard Pressure (based on elevation) will be used.
   ************* Beginning System Sizing Calculations
   ** Warning ** Since Zone Minimum Air Flow Input Method = CONSTANT, input for Fixed Minimum Air Flow Rate will be ignored.
   **   ~~~   ** Occurs in AirTerminal:SingleDuct:VAV:Reheat = BASEMENT ZN VAV TERMINAL
   ** Warning ** Since Zone Minimum Air Flow Input Method = CONSTANT, input for Fixed Minimum Air Flow Rate will be ignored.
   **   ~~~   ** Occurs in AirTerminal:SingleDuct:VAV:Reheat = CORRIDOR_FLR_1 ZN VAV TERMINAL
   ** Warning ** Since Zone Minimum Air Flow Input Method = CONSTANT, input for Fixed Minimum Air Flow Rate will be ignored.
   **   ~~~   ** Occurs in AirTerminal:SingleDuct:VAV:Reheat = CORRIDOR_FLR_2 ZN VAV TERMINAL
   ** Warning ** Since Zone Minimum Air Flow Input Method = CONSTANT, input for Fixed Minimum Air Flow Rate will be ignored.
   **   ~~~   ** Occurs in AirTerminal:SingleDuct:VAV:Reheat = CORRIDOR_FLR_5 ZN VAV TERMINAL
   ** Warning ** Since Zone Minimum Air Flow Input Method = CONSTANT, input for Fixed Minimum Air Flow Rate will be ignored.
   **   ~~~   ** Occurs in AirTerminal:SingleDuct:VAV:Reheat = CORRIDOR_NW_FLR_3 ZN VAV TERMINAL
   ** Warning ** Since Zone Minimum Air Flow Input Method = CONSTANT, input for Fixed Minimum Air Flow Rate will be ignored.
   **   ~~~   ** Occurs in AirTerminal:SingleDuct:VAV:Reheat = CORRIDOR_NW_FLR_4 ZN VAV TERMINAL
   ** Warning ** Since Zone Minimum Air Flow Input Method = CONSTANT, input for Fixed Minimum Air Flow Rate will be ignored.
   **   ~~~   ** Occurs in AirTerminal:SingleDuct:VAV:Reheat = CORRIDOR_SE_FLR_3 ZN VAV TERMINAL
   ** Warning ** Since Zone Minimum Air Flow Input Method = CONSTANT, input for Fixed Minimum Air Flow Rate will be ignored.
   **   ~~~   ** Occurs in AirTerminal:SingleDuct:VAV:Reheat = CORRIDOR_SE_FLR_4 ZN VAV TERMINAL
   ** Warning ** Since Zone Minimum Air Flow Input Method = CONSTANT, input for Fixed Minimum Air Flow Rate will be ignored.
   **   ~~~   ** Occurs in AirTerminal:SingleDuct:VAV:Reheat = DINING_FLR_5 ZN VAV TERMINAL
   ** Warning ** Since Zone Minimum Air Flow Input Method = CONSTANT, input for Fixed Minimum Air Flow Rate will be ignored.
   **   ~~~   ** Occurs in AirTerminal:SingleDuct:VAV:Reheat = ER_EXAM1_MULT4_FLR_1 ZN VAV TERMINAL
   ** Warning ** Since Zone Minimum Air Flow Input Method = CONSTANT, input for Fixed Minimum Air Flow Rate will be ignored.
   **   ~~~   ** Occurs in AirTerminal:SingleDuct:VAV:Reheat = ER_EXAM3_MULT4_FLR_1 ZN VAV TERMINAL
   ** Warning ** Since Zone Minimum Air Flow Input Method = CONSTANT, input for Fixed Minimum Air Flow Rate will be ignored.
   **   ~~~   ** Occurs in AirTerminal:SingleDuct:VAV:Reheat = ER_NURSESTN_LOBBY_FLR_1 ZN VAV TERMINAL
   ** Warning ** Since Zone Minimum Air Flow Input Method = CONSTANT, input for Fixed Minimum Air Flow Rate will be ignored.
   **   ~~~   ** Occurs in AirTerminal:SingleDuct:VAV:Reheat = ER_TRAUMA1_FLR_1 ZN VAV TERMINAL
   ** Warning ** Since Zone Minimum Air Flow Input Method = CONSTANT, input for Fixed Minimum Air Flow Rate will be ignored.
   **   ~~~   ** Occurs in AirTerminal:SingleDuct:VAV:Reheat = ER_TRAUMA2_FLR_1 ZN VAV TERMINAL
   ** Warning ** Since Zone Minimum Air Flow Input Method = CONSTANT, input for Fixed Minimum Air Flow Rate will be ignored.
   **   ~~~   ** Occurs in AirTerminal:SingleDuct:VAV:Reheat = ER_TRIAGE_MULT4_FLR_1 ZN VAV TERMINAL
   ** Warning ** Since Zone Minimum Air Flow Input Method = CONSTANT, input for Fixed Minimum Air Flow Rate will be ignored.
   **   ~~~   ** Occurs in AirTerminal:SingleDuct:VAV:Reheat = ICU_FLR_2 ZN VAV TERMINAL
   ** Warning ** Since Zone Minimum Air Flow Input Method = CONSTANT, input for Fixed Minimum Air Flow Rate will be ignored.
   **   ~~~   ** Occurs in AirTerminal:SingleDuct:VAV:Reheat = ICU_NURSESTN_LOBBY_FLR_2 ZN VAV TERMINAL
   ** Warning ** Since Zone Minimum Air Flow Input Method = CONSTANT, input for Fixed Minimum Air Flow Rate will be ignored.
   **   ~~~   ** Occurs in AirTerminal:SingleDuct:VAV:Reheat = IC_PATROOM1_MULT5_FLR_2 ZN VAV TERMINAL
   ** Warning ** Since Zone Minimum Air Flow Input Method = CONSTANT, input for Fixed Minimum Air Flow Rate will be ignored.
   **   ~~~   ** Occurs in AirTerminal:SingleDuct:VAV:Reheat = IC_PATROOM2_FLR_2 ZN VAV TERMINAL
   ** Warning ** Since Zone Minimum Air Flow Input Method = CONSTANT, input for Fixed Minimum Air Flow Rate will be ignored.
   **   ~~~   ** Occurs in AirTerminal:SingleDuct:VAV:Reheat = IC_PATROOM3_MULT6_FLR_2 ZN VAV TERMINAL
   ** Warning ** Since Zone Minimum Air Flow Input Method = CONSTANT, input for Fixed Minimum Air Flow Rate will be ignored.
   **   ~~~   ** Occurs in AirTerminal:SingleDuct:VAV:Reheat = LAB_FLR_3 ZN VAV TERMINAL
   ** Warning ** Since Zone Minimum Air Flow Input Method = CONSTANT, input for Fixed Minimum Air Flow Rate will be ignored.
   **   ~~~   ** Occurs in AirTerminal:SingleDuct:VAV:Reheat = LAB_FLR_4 ZN VAV TERMINAL
   ** Warning ** Since Zone Minimum Air Flow Input Method = CONSTANT, input for Fixed Minimum Air Flow Rate will be ignored.
   **   ~~~   ** Occurs in AirTerminal:SingleDuct:VAV:Reheat = LOBBY_RECORDS_FLR_1 ZN VAV TERMINAL
   ** Warning ** Since Zone Minimum Air Flow Input Method = CONSTANT, input for Fixed Minimum Air Flow Rate will be ignored.
   **   ~~~   ** Occurs in AirTerminal:SingleDuct:VAV:Reheat = NURSESTN_LOBBY_FLR_3 ZN VAV TERMINAL
   ** Warning ** Since Zone Minimum Air Flow Input Method = CONSTANT, input for Fixed Minimum Air Flow Rate will be ignored.
   **   ~~~   ** Occurs in AirTerminal:SingleDuct:VAV:Reheat = NURSESTN_LOBBY_FLR_4 ZN VAV TERMINAL
   ** Warning ** Since Zone Minimum Air Flow Input Method = CONSTANT, input for Fixed Minimum Air Flow Rate will be ignored.
   **   ~~~   ** Occurs in AirTerminal:SingleDuct:VAV:Reheat = NURSESTN_LOBBY_FLR_5 ZN VAV TERMINAL
   ** Warning ** Since Zone Minimum Air Flow Input Method = CONSTANT, input for Fixed Minimum Air Flow Rate will be ignored.
   **   ~~~   ** Occurs in AirTerminal:SingleDuct:VAV:Reheat = OFFICE1_FLR_5 ZN VAV TERMINAL
   ** Warning ** Since Zone Minimum Air Flow Input Method = CONSTANT, input for Fixed Minimum Air Flow Rate will be ignored.
   **   ~~~   ** Occurs in AirTerminal:SingleDuct:VAV:Reheat = OFFICE1_MULT4_FLR_1 ZN VAV TERMINAL
   ** Warning ** Since Zone Minimum Air Flow Input Method = CONSTANT, input for Fixed Minimum Air Flow Rate will be ignored.
   **   ~~~   ** Occurs in AirTerminal:SingleDuct:VAV:Reheat = OFFICE2_MULT5_FLR_5 ZN VAV TERMINAL
   ** Warning ** Since Zone Minimum Air Flow Input Method = CONSTANT, input for Fixed Minimum Air Flow Rate will be ignored.
   **   ~~~   ** Occurs in AirTerminal:SingleDuct:VAV:Reheat = OFFICE3_FLR_5 ZN VAV TERMINAL
   ** Warning ** Since Zone Minimum Air Flow Input Method = CONSTANT, input for Fixed Minimum Air Flow Rate will be ignored.
   **   ~~~   ** Occurs in AirTerminal:SingleDuct:VAV:Reheat = OFFICE4_MULT6_FLR_5 ZN VAV TERMINAL
   ** Warning ** Since Zone Minimum Air Flow Input Method = CONSTANT, input for Fixed Minimum Air Flow Rate will be ignored.
   **   ~~~   ** Occurs in AirTerminal:SingleDuct:VAV:Reheat = OR_NURSESTN_LOBBY_FLR_2 ZN VAV TERMINAL
   ** Warning ** Since Zone Minimum Air Flow Input Method = CONSTANT, input for Fixed Minimum Air Flow Rate will be ignored.
   **   ~~~   ** Occurs in AirTerminal:SingleDuct:VAV:Reheat = PATROOM1_MULT10_FLR_3 ZN VAV TERMINAL
   ** Warning ** Since Zone Minimum Air Flow Input Method = CONSTANT, input for Fixed Minimum Air Flow Rate will be ignored.
   **   ~~~   ** Occurs in AirTerminal:SingleDuct:VAV:Reheat = PATROOM1_MULT10_FLR_4 ZN VAV TERMINAL
   ** Warning ** Since Zone Minimum Air Flow Input Method = CONSTANT, input for Fixed Minimum Air Flow Rate will be ignored.
   **   ~~~   ** Occurs in AirTerminal:SingleDuct:VAV:Reheat = PATROOM2_FLR_3 ZN VAV TERMINAL
   ** Warning ** Since Zone Minimum Air Flow Input Method = CONSTANT, input for Fixed Minimum Air Flow Rate will be ignored.
   **   ~~~   ** Occurs in AirTerminal:SingleDuct:VAV:Reheat = PATROOM2_FLR_4 ZN VAV TERMINAL
   ** Warning ** Since Zone Minimum Air Flow Input Method = CONSTANT, input for Fixed Minimum Air Flow Rate will be ignored.
   **   ~~~   ** Occurs in AirTerminal:SingleDuct:VAV:Reheat = PATROOM3_MULT10_FLR_3 ZN VAV TERMINAL
   ** Warning ** Since Zone Minimum Air Flow Input Method = CONSTANT, input for Fixed Minimum Air Flow Rate will be ignored.
   **   ~~~   ** Occurs in AirTerminal:SingleDuct:VAV:Reheat = PATROOM3_MULT10_FLR_4 ZN VAV TERMINAL
   ** Warning ** Since Zone Minimum Air Flow Input Method = CONSTANT, input for Fixed Minimum Air Flow Rate will be ignored.
   **   ~~~   ** Occurs in AirTerminal:SingleDuct:VAV:Reheat = PATROOM4_FLR_3 ZN VAV TERMINAL
   ** Warning ** Since Zone Minimum Air Flow Input Method = CONSTANT, input for Fixed Minimum Air Flow Rate will be ignored.
   **   ~~~   ** Occurs in AirTerminal:SingleDuct:VAV:Reheat = PATROOM4_FLR_4 ZN VAV TERMINAL
   ** Warning ** Since Zone Minimum Air Flow Input Method = CONSTANT, input for Fixed Minimum Air Flow Rate will be ignored.
   **   ~~~   ** Occurs in AirTerminal:SingleDuct:VAV:Reheat = PATROOM5_MULT10_FLR_3 ZN VAV TERMINAL
   ** Warning ** Since Zone Minimum Air Flow Input Method = CONSTANT, input for Fixed Minimum Air Flow Rate will be ignored.
   **   ~~~   ** Occurs in AirTerminal:SingleDuct:VAV:Reheat = PATROOM5_MULT10_FLR_4 ZN VAV TERMINAL
   ** Warning ** Since Zone Minimum Air Flow Input Method = CONSTANT, input for Fixed Minimum Air Flow Rate will be ignored.
   **   ~~~   ** Occurs in AirTerminal:SingleDuct:VAV:Reheat = PATROOM6_FLR_3 ZN VAV TERMINAL
   ** Warning ** Since Zone Minimum Air Flow Input Method = CONSTANT, input for Fixed Minimum Air Flow Rate will be ignored.
   **   ~~~   ** Occurs in AirTerminal:SingleDuct:VAV:Reheat = PATROOM6_FLR_4 ZN VAV TERMINAL
   ** Warning ** Since Zone Minimum Air Flow Input Method = CONSTANT, input for Fixed Minimum Air Flow Rate will be ignored.
   **   ~~~   ** Occurs in AirTerminal:SingleDuct:VAV:Reheat = PATROOM7_MULT10_FLR_3 ZN VAV TERMINAL
   ** Warning ** Since Zone Minimum Air Flow Input Method = CONSTANT, input for Fixed Minimum Air Flow Rate will be ignored.
   **   ~~~   ** Occurs in AirTerminal:SingleDuct:VAV:Reheat = PATROOM7_MULT10_FLR_4 ZN VAV TERMINAL
   ** Warning ** Since Zone Minimum Air Flow Input Method = CONSTANT, input for Fixed Minimum Air Flow Rate will be ignored.
   **   ~~~   ** Occurs in AirTerminal:SingleDuct:VAV:Reheat = PATROOM8_FLR_3 ZN VAV TERMINAL
   ** Warning ** Since Zone Minimum Air Flow Input Method = CONSTANT, input for Fixed Minimum Air Flow Rate will be ignored.
   **   ~~~   ** Occurs in AirTerminal:SingleDuct:VAV:Reheat = PATROOM8_FLR_4 ZN VAV TERMINAL
   ** Warning ** Since Zone Minimum Air Flow Input Method = CONSTANT, input for Fixed Minimum Air Flow Rate will be ignored.
   **   ~~~   ** Occurs in AirTerminal:SingleDuct:VAV:Reheat = PHYSTHERAPY_FLR_3 ZN VAV TERMINAL
   ** Warning ** Since Zone Minimum Air Flow Input Method = CONSTANT, input for Fixed Minimum Air Flow Rate will be ignored.
   **   ~~~   ** Occurs in AirTerminal:SingleDuct:VAV:Reheat = RADIOLOGY_FLR_4 ZN VAV TERMINAL
   ************* Beginning Plant Sizing Calculations
   ************* SizeHVACSingleDuct: Potential issue with equipment sizing for AirTerminal:SingleDuct:VAV:Reheat = "BASEMENT ZN VAV TERMINAL".
   **   ~~~   ** User-Specified Minimum Cooling Air Flow Fraction of 0.38086 [m3/s]
   **   ~~~   ** differs from Design Size Minimum Cooling Air Flow Fraction of 1.00000 [m3/s]
   **   ~~~   ** This may, or may not, indicate mismatched component sizes.
   **   ~~~   ** Verify that the value entered is intended and is consistent with other components.
   ************* SizeHVACSingleDuct: Potential issue with equipment sizing for AirTerminal:SingleDuct:VAV:Reheat = "BASEMENT ZN VAV TERMINAL".
   **   ~~~   ** User-Specified Maximum Flow Fraction during Reheat of 0.50000 []
   **   ~~~   ** differs from Design Size Maximum Flow Fraction during Reheat of 1.00000 []
   **   ~~~   ** This may, or may not, indicate mismatched component sizes.
   **   ~~~   ** Verify that the value entered is intended and is consistent with other components.
   ************* SizeHVACSingleDuct: Potential issue with equipment sizing for AirTerminal:SingleDuct:VAV:Reheat = "CORRIDOR_FLR_1 ZN VAV TERMINAL".
   **   ~~~   ** User-Specified Minimum Cooling Air Flow Fraction of 0.38086 [m3/s]
   **   ~~~   ** differs from Design Size Minimum Cooling Air Flow Fraction of 0.73325 [m3/s]
   **   ~~~   ** This may, or may not, indicate mismatched component sizes.
   **   ~~~   ** Verify that the value entered is intended and is consistent with other components.
   ************* SizeHVACSingleDuct: Potential issue with equipment sizing for AirTerminal:SingleDuct:VAV:Reheat = "CORRIDOR_FLR_1 ZN VAV TERMINAL".
   **   ~~~   ** User-Specified Maximum Flow Fraction during Reheat of 0.50000 []
   **   ~~~   ** differs from Design Size Maximum Flow Fraction during Reheat of 1.00000 []
   **   ~~~   ** This may, or may not, indicate mismatched component sizes.
   **   ~~~   ** Verify that the value entered is intended and is consistent with other components.
   ************* SizeHVACSingleDuct: Potential issue with equipment sizing for AirTerminal:SingleDuct:VAV:Reheat = "CORRIDOR_FLR_2 ZN VAV TERMINAL".
   **   ~~~   ** User-Specified Minimum Cooling Air Flow Fraction of 0.38086 [m3/s]
   **   ~~~   ** differs from Design Size Minimum Cooling Air Flow Fraction of 0.69757 [m3/s]
   **   ~~~   ** This may, or may not, indicate mismatched component sizes.
   **   ~~~   ** Verify that the value entered is intended and is consistent with other components.
   ************* SizeHVACSingleDuct: Potential issue with equipment sizing for AirTerminal:SingleDuct:VAV:Reheat = "CORRIDOR_FLR_2 ZN VAV TERMINAL".
   **   ~~~   ** User-Specified Maximum Flow Fraction during Reheat of 0.50000 []
   **   ~~~   ** differs from Design Size Maximum Flow Fraction during Reheat of 1.00000 []
   **   ~~~   ** This may, or may not, indicate mismatched component sizes.
   **   ~~~   ** Verify that the value entered is intended and is consistent with other components.
   ************* SizeHVACSingleDuct: Potential issue with equipment sizing for AirTerminal:SingleDuct:VAV:Reheat = "CORRIDOR_FLR_5 ZN VAV TERMINAL".
   **   ~~~   ** User-Specified Minimum Cooling Air Flow Fraction of 0.24484 [m3/s]
   **   ~~~   ** differs from Design Size Minimum Cooling Air Flow Fraction of 0.39714 [m3/s]
   **   ~~~   ** This may, or may not, indicate mismatched component sizes.
   **   ~~~   ** Verify that the value entered is intended and is consistent with other components.
   ************* SizeHVACSingleDuct: Potential issue with equipment sizing for AirTerminal:SingleDuct:VAV:Reheat = "CORRIDOR_FLR_5 ZN VAV TERMINAL".
   **   ~~~   ** User-Specified Maximum Flow Fraction during Reheat of 0.50000 []
   **   ~~~   ** differs from Design Size Maximum Flow Fraction during Reheat of 1.00000 []
   **   ~~~   ** This may, or may not, indicate mismatched component sizes.
   **   ~~~   ** Verify that the value entered is intended and is consistent with other components.
   ************* SizeHVACSingleDuct: Potential issue with equipment sizing for AirTerminal:SingleDuct:VAV:Reheat = "CORRIDOR_NW_FLR_3 ZN VAV TERMINAL".
   **   ~~~   ** User-Specified Minimum Cooling Air Flow Fraction of 0.24484 [m3/s]
   **   ~~~   ** differs from Design Size Minimum Cooling Air Flow Fraction of 0.49434 [m3/s]
   **   ~~~   ** This may, or may not, indicate mismatched component sizes.
   **   ~~~   ** Verify that the value entered is intended and is consistent with other components.
   ************* SizeHVACSingleDuct: Potential issue with equipment sizing for AirTerminal:SingleDuct:VAV:Reheat = "CORRIDOR_NW_FLR_3 ZN VAV TERMINAL".
   **   ~~~   ** User-Specified Maximum Flow Fraction during Reheat of 0.50000 []
   **   ~~~   ** differs from Design Size Maximum Flow Fraction during Reheat of 1.00000 []
   **   ~~~   ** This may, or may not, indicate mismatched component sizes.
   **   ~~~   ** Verify that the value entered is intended and is consistent with other components.
   ************* SizeHVACSingleDuct: Potential issue with equipment sizing for AirTerminal:SingleDuct:VAV:Reheat = "CORRIDOR_NW_FLR_4 ZN VAV TERMINAL".
   **   ~~~   ** User-Specified Minimum Cooling Air Flow Fraction of 0.24484 [m3/s]
   **   ~~~   ** differs from Design Size Minimum Cooling Air Flow Fraction of 0.42319 [m3/s]
   **   ~~~   ** This may, or may not, indicate mismatched component sizes.
   **   ~~~   ** Verify that the value entered is intended and is consistent with other components.
   ************* SizeHVACSingleDuct: Potential issue with equipment sizing for AirTerminal:SingleDuct:VAV:Reheat = "CORRIDOR_NW_FLR_4 ZN VAV TERMINAL".
   **   ~~~   ** User-Specified Maximum Flow Fraction during Reheat of 0.50000 []
   **   ~~~   ** differs from Design Size Maximum Flow Fraction during Reheat of 1.00000 []
   **   ~~~   ** This may, or may not, indicate mismatched component sizes.
   **   ~~~   ** Verify that the value entered is intended and is consistent with other components.
   ************* SizeHVACSingleDuct: Potential issue with equipment sizing for AirTerminal:SingleDuct:VAV:Reheat = "CORRIDOR_SE_FLR_3 ZN VAV TERMINAL".
   **   ~~~   ** User-Specified Minimum Cooling Air Flow Fraction of 0.24484 [m3/s]
   **   ~~~   ** differs from Design Size Minimum Cooling Air Flow Fraction of 0.53050 [m3/s]
   **   ~~~   ** This may, or may not, indicate mismatched component sizes.
   **   ~~~   ** Verify that the value entered is intended and is consistent with other components.
   ************* SizeHVACSingleDuct: Potential issue with equipment sizing for AirTerminal:SingleDuct:VAV:Reheat = "CORRIDOR_SE_FLR_3 ZN VAV TERMINAL".
   **   ~~~   ** User-Specified Maximum Flow Fraction during Reheat of 0.50000 []
   **   ~~~   ** differs from Design Size Maximum Flow Fraction during Reheat of 1.00000 []
   **   ~~~   ** This may, or may not, indicate mismatched component sizes.
   **   ~~~   ** Verify that the value entered is intended and is consistent with other components.
   ************* SizeHVACSingleDuct: Potential issue with equipment sizing for AirTerminal:SingleDuct:VAV:Reheat = "CORRIDOR_SE_FLR_4 ZN VAV TERMINAL".
   **   ~~~   ** User-Specified Minimum Cooling Air Flow Fraction of 0.24484 [m3/s]
   **   ~~~   ** differs from Design Size Minimum Cooling Air Flow Fraction of 0.46343 [m3/s]
   **   ~~~   ** This may, or may not, indicate mismatched component sizes.
   **   ~~~   ** Verify that the value entered is intended and is consistent with other components.
   ************* SizeHVACSingleDuct: Potential issue with equipment sizing for AirTerminal:SingleDuct:VAV:Reheat = "CORRIDOR_SE_FLR_4 ZN VAV TERMINAL".
   **   ~~~   ** User-Specified Maximum Flow Fraction during Reheat of 0.50000 []
   **   ~~~   ** differs from Design Size Maximum Flow Fraction during Reheat of 1.00000 []
   **   ~~~   ** This may, or may not, indicate mismatched component sizes.
   **   ~~~   ** Verify that the value entered is intended and is consistent with other components.
   ************* SizeHVACSingleDuct: Potential issue with equipment sizing for AirTerminal:SingleDuct:VAV:Reheat = "DINING_FLR_5 ZN VAV TERMINAL".
   **   ~~~   ** User-Specified Maximum Flow Fraction during Reheat of 0.50000 []
   **   ~~~   ** differs from Design Size Maximum Flow Fraction during Reheat of 0.64733 []
   **   ~~~   ** This may, or may not, indicate mismatched component sizes.
   **   ~~~   ** Verify that the value entered is intended and is consistent with other components.
   ************* SizeHVACSingleDuct: Potential issue with equipment sizing for AirTerminal:SingleDuct:VAV:Reheat = "ER_EXAM1_MULT4_FLR_1 ZN VAV TERMINAL".
   **   ~~~   ** User-Specified Minimum Cooling Air Flow Fraction of 1.00000 [m3/s]
   **   ~~~   ** differs from Design Size Minimum Cooling Air Flow Fraction of 0.16268 [m3/s]
   **   ~~~   ** This may, or may not, indicate mismatched component sizes.
   **   ~~~   ** Verify that the value entered is intended and is consistent with other components.
   ************* SizeHVACSingleDuct: Potential issue with equipment sizing for AirTerminal:SingleDuct:VAV:Reheat = "ER_EXAM1_MULT4_FLR_1 ZN VAV TERMINAL".
   **   ~~~   ** User-Specified Maximum Flow Fraction during Reheat of 0.50000 []
   **   ~~~   ** differs from Design Size Maximum Flow Fraction during Reheat of 1.00000 []
   **   ~~~   ** This may, or may not, indicate mismatched component sizes.
   **   ~~~   ** Verify that the value entered is intended and is consistent with other components.
   ************* SizeHVACSingleDuct: Potential issue with equipment sizing for AirTerminal:SingleDuct:VAV:Reheat = "ER_EXAM3_MULT4_FLR_1 ZN VAV TERMINAL".
   **   ~~~   ** User-Specified Minimum Cooling Air Flow Fraction of 1.00000 [m3/s]
   **   ~~~   ** differs from Design Size Minimum Cooling Air Flow Fraction of 0.16843 [m3/s]
   **   ~~~   ** This may, or may not, indicate mismatched component sizes.
   **   ~~~   ** Verify that the value entered is intended and is consistent with other components.
   ************* SizeHVACSingleDuct: Potential issue with equipment sizing for AirTerminal:SingleDuct:VAV:Reheat = "ER_EXAM3_MULT4_FLR_1 ZN VAV TERMINAL".
   **   ~~~   ** User-Specified Maximum Flow Fraction during Reheat of 0.50000 []
   **   ~~~   ** differs from Design Size Maximum Flow Fraction during Reheat of 1.00000 []
   **   ~~~   ** This may, or may not, indicate mismatched component sizes.
   **   ~~~   ** Verify that the value entered is intended and is consistent with other components.
   ************* SizeHVACSingleDuct: Potential issue with equipment sizing for AirTerminal:SingleDuct:VAV:Reheat = "ER_NURSESTN_LOBBY_FLR_1 ZN VAV TERMINAL".
   **   ~~~   ** User-Specified Maximum Flow Fraction during Reheat of 0.50000 []
   **   ~~~   ** differs from Design Size Maximum Flow Fraction during Reheat of 0.99359 []
   **   ~~~   ** This may, or may not, indicate mismatched component sizes.
   **   ~~~   ** Verify that the value entered is intended and is consistent with other components.
   ************* SizeHVACSingleDuct: Potential issue with equipment sizing for AirTerminal:SingleDuct:VAV:Reheat = "ER_TRAUMA1_FLR_1 ZN VAV TERMINAL".
   **   ~~~   ** User-Specified Minimum Cooling Air Flow Fraction of 1.00000 [m3/s]
   **   ~~~   ** differs from Design Size Minimum Cooling Air Flow Fraction of 0.10934 [m3/s]
   **   ~~~   ** This may, or may not, indicate mismatched component sizes.
   **   ~~~   ** Verify that the value entered is intended and is consistent with other components.
   ************* SizeHVACSingleDuct: Potential issue with equipment sizing for AirTerminal:SingleDuct:VAV:Reheat = "ER_TRAUMA1_FLR_1 ZN VAV TERMINAL".
   **   ~~~   ** User-Specified Maximum Flow Fraction during Reheat of 0.50000 []
   **   ~~~   ** differs from Design Size Maximum Flow Fraction during Reheat of 1.00000 []
   **   ~~~   ** This may, or may not, indicate mismatched component sizes.
   **   ~~~   ** Verify that the value entered is intended and is consistent with other components.
   ************* SizeHVACSingleDuct: Potential issue with equipment sizing for AirTerminal:SingleDuct:VAV:Reheat = "ER_TRAUMA2_FLR_1 ZN VAV TERMINAL".
   **   ~~~   ** User-Specified Minimum Cooling Air Flow Fraction of 1.00000 [m3/s]
   **   ~~~   ** differs from Design Size Minimum Cooling Air Flow Fraction of 0.10244 [m3/s]
   **   ~~~   ** This may, or may not, indicate mismatched component sizes.
[...]
   ** Warning ** CoolingTower:VariableSpeed "CENTRIFUGAL VARIABLE SPEED FAN OPEN COOLING TOWER 38.2 GPM/HP" - Tower range temperature is outside model boundaries at 3.54E-002.
   **   ~~~   **  ...Valid range = 1.11 to 11.11. Occurrence info = EL PASO INTERNATIONAL AP  UT ANN HTG 99.6% CONDNS DB HVAC Sizing Pass 1, 12/21 00:00 - 00:10
   **   ~~~   **  ...Tower range temperature passed to the model = 3.53784E-002
   **   ~~~   **  ...Range temperatures outside model boundaries may not adversely affect tower performance.
   **   ~~~   **  ...This is not an unexpected occurrence when simulating actual conditions.
   ** Warning ** CoolingTower:VariableSpeed "CENTRIFUGAL VARIABLE SPEED FAN OPEN COOLING TOWER 38.2 GPM/HP" - Inlet air wet-bulb temperature is outside model boundaries at -5.20.
   **   ~~~   **  ...Valid range = -1.00 to 26.67. Occurrence info = EL PASO INTERNATIONAL AP  UT ANN HTG 99.6% CONDNS DB HVAC Sizing Pass 1, 12/21 00:00 - 00:10
   **   ~~~   **  ...Inlet air wet-bulb temperature passed to the model = -1.000000
   **   ~~~   **  ...Wet-bulb temperatures outside model boundaries may not adversely affect tower performance.
   ** Warning ** CoolingTower:VariableSpeed "CENTRIFUGAL VARIABLE SPEED FAN OPEN COOLING TOWER 38.2 GPM/HP" - Tower approach temperature is outside model boundaries at 26.31.
   **   ~~~   **  ...Valid range = 1.11 to 11.11. Occurrence info = EL PASO INTERNATIONAL AP  UT ANN HTG 99.6% CONDNS DB HVAC Sizing Pass 1, 12/21 00:00 - 00:10
   **   ~~~   **  ...Tower approach temperature passed to the model = 26.31111
   **   ~~~   **  ...Approach temperatures outside model boundaries may not adversely affect tower performance.
   **   ~~~   **  ...This is not an unexpected occurrence when simulating actual conditions.
   ** Warning ** CoolingTower:VariableSpeed "CENTRIFUGAL VARIABLE SPEED FAN OPEN COOLING TOWER 38.2 GPM/HP" - Inlet air wet-bulb temperature is outside model boundaries at -5.20.
   **   ~~~   **  ...Valid range = -1.00 to 26.67. Occurrence info = EL PASO INTERNATIONAL AP  UT ANN HTG 99.6% CONDNS DB HVAC Sizing Pass 1, 12/21 00:10 - 00:20
   **   ~~~   **  ...Inlet air wet-bulb temperature passed to the model = -1.000000
   **   ~~~   **  ...Wet-bulb temperatures outside model boundaries may not adversely affect tower performance.
   ** Warning ** CoolingTower:VariableSpeed "CENTRIFUGAL VARIABLE SPEED FAN OPEN COOLING TOWER 38.2 GPM/HP" - Inlet air wet-bulb temperature is outside model boundaries at -5.20.
   **   ~~~   **  ...Valid range = -1.00 to 26.67. Occurrence info = EL PASO INTERNATIONAL AP  UT ANN HTG 99.6% CONDNS DB HVAC Sizing Pass 1, 12/21 00:20 - 00:30
   **   ~~~   **  ...Inlet air wet-bulb temperature passed to the model = -1.000000
   **   ~~~   **  ...Wet-bulb temperatures outside model boundaries may not adversely affect tower performance.
   ** Warning ** CoolingTower:VariableSpeed "CENTRIFUGAL VARIABLE SPEED FAN OPEN COOLING TOWER 38.2 GPM/HP" - Inlet air wet-bulb temperature is outside model boundaries at -5.20.
   **   ~~~   **  ...Valid range = -1.00 to 26.67. Occurrence info = EL PASO INTERNATIONAL AP  UT ANN HTG 99.6% CONDNS DB HVAC Sizing Pass 1, 12/21 00:30 - 00:40
   **   ~~~   **  ...Inlet air wet-bulb temperature passed to the model = -1.000000
   **   ~~~   **  ...Wet-bulb temperatures outside model boundaries may not adversely affect tower performance.
   ** Warning ** CoolingTower:VariableSpeed "CENTRIFUGAL VARIABLE SPEED FAN OPEN COOLING TOWER 38.2 GPM/HP" - Inlet air wet-bulb temperature is outside model boundaries at -5.20.
   **   ~~~   **  ...Valid range = -1.00 to 26.67. Occurrence info = EL PASO INTERNATIONAL AP  UT ANN HTG 99.6% CONDNS DB HVAC Sizing Pass 1, 12/21 00:50 - 01:00
   **   ~~~   **  ...Inlet air wet-bulb temperature passed to the model = -1.000000
   **   ~~~   **  ...Wet-bulb temperatures outside model boundaries may not adversely affect tower performance.
   ************* Beginning Simulation
   ** Warning ** SimHVAC: Maximum iterations (20) exceeded for all HVAC loops, at RUN PERIOD 1, 01/15 10:20 - 10:30
   **   ~~~   ** The solution for one or more of the Air Loop HVAC systems did not appear to converge
   **   ~~~   ** Air System Named = VAV_OR did not converge for energy
   **   ~~~   ** Check values should be zero. Most Recent values listed first.
   **   ~~~   ** Demand-to-Supply interface energy check value iteration history trace: 90.311467,780.262179,5989.935147,29866.427532,89.379128,776.855236,5997.773928,29966.059929,88.466947,773.503537,
   **   ~~~   ** Supply-to-demand interface deck 1 energy check value iteration history trace: 0.000000,0.000000,0.000000,0.000000,0.000000,0.000000,0.000000,0.000000,0.000000,0.000000,
   **   ~~~   ** Plant System Named = CONDENSER WATER LOOP did not converge for temperature
   **   ~~~   ** Check values should be zero. Most Recent values listed first.
   **   ~~~   ** Demand-to-Supply interface temperature check value iteration history trace: 0.525499,6.142202E-002,7.579126E-002,9.352220E-002,0.115401,0.142399,0.536592,5.011841E-002,6.184321E-002,7.631101E-002,
   **   ~~~   ** Supply-to-Demand interface temperature check value iteration history trace: 0.166241,0.583912,6.821247E-002,8.417041E-002,0.103862,0.128160,0.158460,0.596288,5.565917E-002,6.868025E-002,
   **   ~~~   ** Node named CONDENSER WATER LOOP DEMAND INLET NODE shows monotonically increasing temperatures with a trend rate across iterations of 6.15940 [C/iteration]
   **   ~~~   ** Node named CONDENSER WATER LOOP DEMAND INLET NODE temperature [C] iteration history trace (most recent first): 20.57307,20.44788,0.00000,0.00000,0.00000,
   **   ~~~   ** Node named CONDENSER WATER LOOP SUPPLY OUTLET NODE shows monotonically increasing temperatures with a trend rate across iterations of 6.16237 [C/iteration]
   **   ~~~   ** Node named CONDENSER WATER LOOP SUPPLY OUTLET NODE temperature [C] iteration history trace (most recent first): 20.58760,20.44849,0.00000,0.00000,0.00000,
   **   ~~~   ** Plant System Named = MAIN SERVICE WATER LOOP did not converge for temperature
   **   ~~~   ** Check values should be zero. Most Recent values listed first.
   **   ~~~   ** Demand-to-Supply interface temperature check value iteration history trace: 0.554291,0.554291,0.554291,0.554291,0.554291,0.554291,0.554291,0.554291,0.554291,0.554290,
   **   ~~~   ** Supply-to-Demand interface temperature check value iteration history trace: 0.624292,0.624292,0.624292,0.624292,0.624292,0.624292,0.624292,0.624292,0.624293,0.624293,
   **   ~~~   ** Node named MAIN SERVICE WATER LOOP DEMAND OUTLET NODE shows monotonically increasing temperatures with a trend rate across iterations of 17.39858 [C/iteration]
   **   ~~~   ** Node named MAIN SERVICE WATER LOOP DEMAND OUTLET NODE temperature [C] iteration history trace (most recent first): 58.20055,57.58468,0.00000,0.00000,0.00000,
   **   ~~~   ** Node named MAIN SERVICE WATER LOOP SUPPLY INLET NODE shows monotonically increasing temperatures with a trend rate across iterations of 17.40752 [C/iteration]
   **   ~~~   ** Node named MAIN SERVICE WATER LOOP SUPPLY INLET NODE temperature [C] iteration history trace (most recent first): 58.20983,57.65554,0.00000,0.00000,0.00000,
   **   ~~~   ** Plant System Named = SERVICE WATER LOOP did not converge for temperature
   **   ~~~   ** Check values should be zero. Most Recent values listed first.
   **   ~~~   ** Demand-to-Supply interface temperature check value iteration history trace: 0.000000,0.000000,0.000000,0.000000,0.000000,0.000000,0.000000,0.000000,0.000000,0.000000,
   **   ~~~   ** Supply-to-Demand interface temperature check value iteration history trace: 3.020262E-002,3.020262E-002,3.020262E-002,3.020262E-002,3.020262E-002,3.020261E-002,3.020263E-002,3.020265E-002,3.020257E-002,3.020248E-002,
   **   ~~~   ** Node named SERVICE WATER LOOP DEMAND OUTLET NODE shows oscillating temperatures across iterations with a repeated value of 15.11647
   **   ~~~   ** Node named SERVICE WATER LOOP DEMAND OUTLET NODE temperature [C] iteration history trace (most recent first): 15.11647,15.11647,0.00000,0.00000,0.00000,
   **   ~~~   ** Node named SERVICE WATER LOOP SUPPLY INLET NODE shows oscillating temperatures across iterations with a repeated value of 15.12311
   **   ~~~   ** Node named SERVICE WATER LOOP SUPPLY INLET NODE temperature [C] iteration history trace (most recent first): 15.12311,15.12311,0.00000,0.00000,0.00000,
   ** Warning ** SimHVAC: Maximum iterations (20) exceeded for all HVAC loops, at RUN PERIOD 1, 01/30 08:00 - 08:03
   **   ~~~   ** The solution for one or more of the Air Loop HVAC systems did not appear to converge
   **   ~~~   ** Air System Named = VAV_2 did not converge for energy
   **   ~~~   ** Check values should be zero. Most Recent values listed first.
   **   ~~~   ** Demand-to-Supply interface energy check value iteration history trace: 30.065629,968.168686,27189.160224,292206.617297,1.001138,31.721253,999.627140,27476.923034,287585.589854,5.775210,
   **   ~~~   ** Supply-to-demand interface deck 1 energy check value iteration history trace: 0.000000,0.000000,0.000000,0.000000,0.000000,0.000000,0.000000,0.000000,0.000000,0.000000,
   **   ~~~   ** Air System Named = VAV_OR did not converge for energy
   **   ~~~   ** Check values should be zero. Most Recent values listed first.
   **   ~~~   ** Demand-to-Supply interface energy check value iteration history trace: 134.145147,774.152304,4055.412038,15271.357697,48.779008,202.890987,838.473328,3230.754970,10725.145999,123.059325,
   **   ~~~   ** Supply-to-demand interface deck 1 energy check value iteration history trace: 0.000000,0.000000,0.000000,0.000000,0.000000,0.000000,0.000000,0.000000,0.000000,0.000000,
   ** Warning ** Temperature out of range [-100. to 200.] (PsyPsatFnTemp)
   **   ~~~   **  Routine=PsyTwbFnTdbWPb, Environment=RUN PERIOD 1, at Simulation time=02/07 23:40 - 23:50
   **   ~~~   **  Input Temperature=-117.22
   ** Warning ** SimHVAC: Maximum iterations (20) exceeded for all HVAC loops, at RUN PERIOD 1, 02/10 06:14 - 06:15
   **   ~~~   ** The solution for one or more of the Air Loop HVAC systems did not appear to converge
   **   ~~~   ** Air System Named = VAV_OR did not converge for energy
   **   ~~~   ** Check values should be zero. Most Recent values listed first.
   **   ~~~   ** Demand-to-Supply interface energy check value iteration history trace: 23.984433,1491.453671,44343.534560,0.000000,0.000000,46728.129798,9.606467E-003,2.134337,170.160821,12654.485981,
   **   ~~~   ** Supply-to-demand interface deck 1 energy check value iteration history trace: 0.000000,0.000000,0.000000,0.000000,0.000000,0.000000,0.000000,0.000000,0.000000,0.000000,
   ** Warning ** SimHVAC: Maximum iterations (20) exceeded for all HVAC loops, at RUN PERIOD 1, 12/18 09:00 - 09:03
   **   ~~~   ** The solution for one or more of the Air Loop HVAC systems did not appear to converge
   **   ~~~   ** Air System Named = VAV_1 did not converge for energy
   **   ~~~   ** Check values should be zero. Most Recent values listed first.
   **   ~~~   ** Demand-to-Supply interface energy check value iteration history trace: 44.303326,850.201390,15153.001075,138804.334715,44.122728,848.795648,15160.708485,138435.614307,1.628153,39.928043,
   **   ~~~   ** Supply-to-demand interface deck 1 energy check value iteration history trace: 0.000000,0.000000,0.000000,0.000000,0.000000,0.000000,0.000000,0.000000,0.000000,0.000000,
   **   ~~~   ** Air System Named = VAV_2 did not converge for energy
   **   ~~~   ** Check values should be zero. Most Recent values listed first.
   **   ~~~   ** Demand-to-Supply interface energy check value iteration history trace: 51.205177,1290.817034,28814.317608,277438.601400,51.651297,1297.685299,28869.215704,276298.955912,1.662988,44.832628,
   **   ~~~   ** Supply-to-demand interface deck 1 energy check value iteration history trace: 0.000000,0.000000,0.000000,0.000000,0.000000,0.000000,0.000000,0.000000,0.000000,0.000000,
   **   ~~~   ** Plant System Named = CONDENSER WATER LOOP did not converge for temperature
   **   ~~~   ** Check values should be zero. Most Recent values listed first.
   **   ~~~   ** Demand-to-Supply interface temperature check value iteration history trace: 0.313672,0.105367,0.208300,0.313679,0.105355,0.208276,0.313729,0.105260,0.208088,0.314142,
   **   ~~~   ** Supply-to-Demand interface temperature check value iteration history trace: 0.293424,0.441467,0.148039,0.293420,0.441476,0.148023,0.293387,0.441547,0.147889,0.293123,
   **   ~~~   ** Node named CONDENSER WATER LOOP DEMAND INLET NODE shows monotonically increasing temperatures with a trend rate across iterations of 6.24766 [C/iteration]
   **   ~~~   ** Node named CONDENSER WATER LOOP DEMAND INLET NODE temperature [C] iteration history trace (most recent first): 20.92332,20.62997,0.00000,0.00000,0.00000,
   **   ~~~   ** Node named CONDENSER WATER LOOP SUPPLY OUTLET NODE shows monotonically increasing temperatures with a trend rate across iterations of 6.22400 [C/iteration]
   **   ~~~   ** Node named CONDENSER WATER LOOP SUPPLY OUTLET NODE temperature [C] iteration history trace (most recent first): 20.88426,20.47150,0.00000,0.00000,0.00000,
   ** Warning ** The resource referenced by LifeCycleCost:UsePriceEscalation= "U.S. AVG  COMMERCIAL-ELECTRICITY" has no energy cost. 
   **   ~~~   ** ... It is likely that the wrong resource is used. The resource should match the meter used in Utility:Tariff.
   ** Warning ** The resource referenced by LifeCycleCost:UsePriceEscalation= "U.S. AVG  COMMERCIAL-DISTILLATE OIL" has no energy cost. 
   **   ~~~   ** ... It is likely that the wrong resource is used. The resource should match the meter used in Utility:Tariff.
   ** Warning ** The resource referenced by LifeCycleCost:UsePriceEscalation= "U.S. AVG  COMMERCIAL-RESIDUAL OIL" has no energy cost. 
   **   ~~~   ** ... It is likely that the wrong resource is used. The resource should match the meter used in Utility:Tariff.
   ** Warning ** The resource referenced by LifeCycleCost:UsePriceEscalation= "U.S. AVG  COMMERCIAL-NATURAL GAS" has no energy cost. 
   **   ~~~   ** ... It is likely that the wrong resource is used. The resource should match the meter used in Utility:Tariff.
   ** Warning ** The resource referenced by LifeCycleCost:UsePriceEscalation= "U.S. AVG  COMMERCIAL-COAL" has no energy cost. 
   **   ~~~   ** ... It is likely that the wrong resource is used. The resource should match the meter used in Utility:Tariff.
   ************* Simulation Error Summary *************
   ************* There are 5 unused schedules in input.
   ************* There are 5 unused week schedules in input.
   ************* There are 22 unused day schedules in input.
   ************* Use Output:Diagnostics,DisplayUnusedSchedules; to see them.
   *************
   ************* ===== Recurring Error Summary =====
   ************* The following recurring error messages occurred.
   *************
   *************  ** Warning ** BOOSTER WATER FIXTURE - 0.58 GPM AT 180F" - Target water temperature should be less than or equal to the hot water temperature error continues...
   *************  **   ~~~   **   This error occurred 1189223 total times;
   *************  **   ~~~   **   during Warmup 31577 times;
   *************  **   ~~~   **   during Sizing 0 times.
   *************  **   ~~~   **   Max=82.22064  Min=14.913959
   *************
   *************  ** Warning ** MAIN SERVICE WATER USE 7.63GPM AT 140F" - Target water temperature should be less than or equal to the hot water temperature error continues...
   *************  **   ~~~   **   This error occurred 1189223 total times;
   *************  **   ~~~   **   during Warmup 31577 times;
   *************  **   ~~~   **   during Sizing 0 times.
   *************  **   ~~~   **   Max=59.750698  Min=14.913959
   *************
   *************  ** Warning ** LAUNDRY SERVICE WATER USE 2.8GPM AT 180F" - Target water temperature should be less than or equal to the hot water temperature error continues...
   *************  **   ~~~   **   This error occurred 570079 total times;
   *************  **   ~~~   **   during Warmup 20005 times;
   *************  **   ~~~   **   during Sizing 0 times.
   *************  **   ~~~   **   Max=81.781653  Min=14.913959
   *************
   *************  ** Warning ** Plant loop exceeding upper temperature limit, PlantLoop="LAUNDRY SERVICE WATER LOOP"
   *************  **   ~~~   **   This error occurred 73006 total times;
   *************  **   ~~~   **   during Warmup 2166 times;
   *************  **   ~~~   **   during Sizing 0 times.
   *************  **   ~~~   **   Max=82.066982
   *************
   *************  ** Warning ** Controller:OutdoorAir="VAV_PATRMS OA CONTROLLER": Min OA fraction > Mechanical ventilation OA fraction, continues...
   *************  **   ~~~   **   This error occurred 1252240 total times;
   *************  **   ~~~   **   during Warmup 0 times;
   *************  **   ~~~   **   during Sizing 0 times.
   *************  **   ~~~   **   Max=0.47321  Min=0.47321
   *************
   *************  ** Warning ** CoolingTower:VariableSpeed "CENTRIFUGAL VARIABLE SPEED FAN OPEN COOLING TOWER 38.2 GPM/HP" - Tower range temperature is out of range error continues...
   *************  **   ~~~   **   This error occurred 34884 total times;
   *************  **   ~~~   **   during Warmup 0 times;
   *************  **   ~~~   **   during Sizing 0 times.
   *************  **   ~~~   **   Max=1.111043  Min=4.546703E-006
   *************
   *************  ** Warning ** CoolingTower:VariableSpeed "CENTRIFUGAL VARIABLE SPEED FAN OPEN COOLING TOWER 38.2 GPM/HP" - Tower approach temperature is out of range error continues...
   *************  **   ~~~   **   This error occurred 28083 total times;
   *************  **   ~~~   **   during Warmup 0 times;
   *************  **   ~~~   **   during Sizing 0 times.
   *************  **   ~~~   **   Max=26.311111  Min=11.111112
   *************
   *************  ** Warning ** CoolingTower:VariableSpeed "CENTRIFUGAL VARIABLE SPEED FAN OPEN COOLING TOWER 38.2 GPM/HP" - Inlet air wet-bulb temperature is out of range error continues...
   *************  **   ~~~   **   This error occurred 268 total times;
   *************  **   ~~~   **   during Warmup 0 times;
   *************  **   ~~~   **   during Sizing 0 times.
   *************  **   ~~~   **   Max=-1.001767  Min=-5.2
   *************
   *************  ** Warning ** Temperature out of range [-100. to 200.] (PsyPsatFnTemp)
   *************  **   ~~~   **   This error occurred 1 total times;
   *************  **   ~~~   **   during Warmup 0 times;
   *************  **   ~~~   **   during Sizing 0 times.
   *************  **   ~~~   **   Max=-117.226833 C  Min=-117.226833 C
   *************
   *************
   ************* ===== Final Error Summary =====
   ************* The following error categories occurred.  Consider correcting or noting.
   ************* InterZone Surface Areas -- mismatch
   ************* ..Area mismatch errors happen when the interzone surface in zone A is
   ************* ..not the same size as it's companion in zone B.
   ************* Nominally Unused Constructions
   ************* ..The nominally unused constructions warning is provided to alert you to potential conditions that can cause
   ************* ..extra time during simulation. Each construction is calculated by the algorithm indicated in the HeatBalanceAlgorithm
   ************* ..object. You may remove the constructions indicated (when you use the DisplayExtraWarnings option).
   *************
   ************* EnergyPlus Warmup Error Summary. During Warmup: 3 Warning; 0 Severe Errors.
   ************* EnergyPlus Sizing Error Summary. During Sizing: 183 Warning; 0 Severe Errors.
   ************* EnergyPlus Completed Successfully-- 4337434 Warning; 0 Severe Errors; Elapsed Time=00hr 02min 50.42sec
