! Program Version,EnergyPlus, Version 9.6.0-4b123cf80f, YMD=2022.03.25 18:57,
! Output:Meter Objects (applicable to this run)
Output:Meter,Electricity:Facility,hourly; !- [J]
Output:Meter:Cumulative,Electricity:Facility,hourly; !- [J]
Output:Meter,Electricity:Building,hourly; !- [J]
Output:Meter:Cumulative,Electricity:Building,hourly; !- [J]
Output:Meter,Electricity:Zone:BASEMENT ZN,hourly; !- [J]
Output:Meter:Cumulative,Electricity:Zone:BASEMENT ZN,hourly; !- [J]
Output:Meter,Electricity:SpaceType:GENERAL,hourly; !- [J]
Output:Meter:Cumulative,Electricity:SpaceType:GENERAL,hourly; !- [J]
Output:Meter,InteriorLights:Electricity,hourly; !- [J]
Output:Meter:Cumulative,InteriorLights:Electricity,hourly; !- [J]
Output:Meter,InteriorLights:Electricity:Zone:BASEMENT ZN,hourly; !- [J]
Output:Meter:Cumulative,InteriorLights:Electricity:Zone:BASEMENT ZN,hourly; !- [J]
Output:Meter,InteriorLights:Electricity:SpaceType:GENERAL,hourly; !- [J]
Output:Meter:Cumulative,InteriorLights:Electricity:SpaceType:GENERAL,hourly; !- [J]
Output:Meter,General:InteriorLights:Electricity,hourly; !- [J]
Output:Meter:Cumulative,General:InteriorLights:Electricity,hourly; !- [J]
Output:Meter,General:InteriorLights:Electricity:Zone:BASEMENT ZN,hourly; !- [J]
Output:Meter:Cumulative,General:InteriorLights:Electricity:Zone:BASEMENT ZN,hourly; !- [J]
Output:Meter,General:InteriorLights:Electricity:SpaceType:GENERAL,hourly; !- [J]
Output:Meter:Cumulative,General:InteriorLights:Electricity:SpaceType:GENERAL,hourly; !- [J]
Output:Meter,Electricity:Zone:CORRIDOR_FLR_1 ZN,hourly; !- [J]
Output:Meter:Cumulative,Electricity:Zone:CORRIDOR_FLR_1 ZN,hourly; !- [J]
Output:Meter,InteriorLights:Electricity:Zone:CORRIDOR_FLR_1 ZN,hourly; !- [J]
Output:Meter:Cumulative,InteriorLights:Electricity:Zone:CORRIDOR_FLR_1 ZN,hourly; !- [J]
Output:Meter,General:InteriorLights:Electricity:Zone:CORRIDOR_FLR_1 ZN,hourly; !- [J]
Output:Meter:Cumulative,General:InteriorLights:Electricity:Zone:CORRIDOR_FLR_1 ZN,hourly; !- [J]
Output:Meter,Electricity:Zone:CORRIDOR_FLR_2 ZN,hourly; !- [J]
Output:Meter:Cumulative,Electricity:Zone:CORRIDOR_FLR_2 ZN,hourly; !- [J]
Output:Meter,InteriorLights:Electricity:Zone:CORRIDOR_FLR_2 ZN,hourly; !- [J]
Output:Meter:Cumulative,InteriorLights:Electricity:Zone:CORRIDOR_FLR_2 ZN,hourly; !- [J]
Output:Meter,General:InteriorLights:Electricity:Zone:CORRIDOR_FLR_2 ZN,hourly; !- [J]
Output:Meter:Cumulative,General:InteriorLights:Electricity:Zone:CORRIDOR_FLR_2 ZN,hourly; !- [J]
Output:Meter,Electricity:Zone:CORRIDOR_FLR_5 ZN,hourly; !- [J]
Output:Meter:Cumulative,Electricity:Zone:CORRIDOR_FLR_5 ZN,hourly; !- [J]
Output:Meter,InteriorLights:Electricity:Zone:CORRIDOR_FLR_5 ZN,hourly; !- [J]
Output:Meter:Cumulative,InteriorLights:Electricity:Zone:CORRIDOR_FLR_5 ZN,hourly; !- [J]
Output:Meter,General:InteriorLights:Electricity:Zone:CORRIDOR_FLR_5 ZN,hourly; !- [J]
Output:Meter:Cumulative,General:InteriorLights:Electricity:Zone:CORRIDOR_FLR_5 ZN,hourly; !- [J]
Output:Meter,Electricity:Zone:CORRIDOR_NW_FLR_3 ZN,hourly; !- [J]
Output:Meter:Cumulative,Electricity:Zone:CORRIDOR_NW_FLR_3 ZN,hourly; !- [J]
Output:Meter,InteriorLights:Electricity:Zone:CORRIDOR_NW_FLR_3 ZN,hourly; !- [J]
Output:Meter:Cumulative,InteriorLights:Electricity:Zone:CORRIDOR_NW_FLR_3 ZN,hourly; !- [J]
Output:Meter,General:InteriorLights:Electricity:Zone:CORRIDOR_NW_FLR_3 ZN,hourly; !- [J]
Output:Meter:Cumulative,General:InteriorLights:Electricity:Zone:CORRIDOR_NW_FLR_3 ZN,hourly; !- [J]
Output:Meter,Electricity:Zone:CORRIDOR_NW_FLR_4 ZN,hourly; !- [J]
Output:Meter:Cumulative,Electricity:Zone:CORRIDOR_NW_FLR_4 ZN,hourly; !- [J]
Output:Meter,InteriorLights:Electricity:Zone:CORRIDOR_NW_FLR_4 ZN,hourly; !- [J]
Output:Meter:Cumulative,InteriorLights:Electricity:Zone:CORRIDOR_NW_FLR_4 ZN,hourly; !- [J]
Output:Meter,General:InteriorLights:Electricity:Zone:CORRIDOR_NW_FLR_4 ZN,hourly; !- [J]
Output:Meter:Cumulative,General:InteriorLights:Electricity:Zone:CORRIDOR_NW_FLR_4 ZN,hourly; !- [J]
Output:Meter,Electricity:Zone:CORRIDOR_SE_FLR_3 ZN,hourly; !- [J]
Output:Meter:Cumulative,Electricity:Zone:CORRIDOR_SE_FLR_3 ZN,hourly; !- [J]
Output:Meter,InteriorLights:Electricity:Zone:CORRIDOR_SE_FLR_3 ZN,hourly; !- [J]
Output:Meter:Cumulative,InteriorLights:Electricity:Zone:CORRIDOR_SE_FLR_3 ZN,hourly; !- [J]
Output:Meter,General:InteriorLights:Electricity:Zone:CORRIDOR_SE_FLR_3 ZN,hourly; !- [J]
Output:Meter:Cumulative,General:InteriorLights:Electricity:Zone:CORRIDOR_SE_FLR_3 ZN,hourly; !- [J]
Output:Meter,Electricity:Zone:CORRIDOR_SE_FLR_4 ZN,hourly; !- [J]
Output:Meter:Cumulative,Electricity:Zone:CORRIDOR_SE_FLR_4 ZN,hourly; !- [J]
Output:Meter,InteriorLights:Electricity:Zone:CORRIDOR_SE_FLR_4 ZN,hourly; !- [J]
Output:Meter:Cumulative,InteriorLights:Electricity:Zone:CORRIDOR_SE_FLR_4 ZN,hourly; !- [J]
Output:Meter,General:InteriorLights:Electricity:Zone:CORRIDOR_SE_FLR_4 ZN,hourly; !- [J]
Output:Meter:Cumulative,General:InteriorLights:Electricity:Zone:CORRIDOR_SE_FLR_4 ZN,hourly; !- [J]
Output:Meter,Electricity:Zone:DINING_FLR_5 ZN,hourly; !- [J]
Output:Meter:Cumulative,Electricity:Zone:DINING_FLR_5 ZN,hourly; !- [J]
Output:Meter,InteriorLights:Electricity:Zone:DINING_FLR_5 ZN,hourly; !- [J]
Output:Meter:Cumulative,InteriorLights:Electricity:Zone:DINING_FLR_5 ZN,hourly; !- [J]
Output:Meter,General:InteriorLights:Electricity:Zone:DINING_FLR_5 ZN,hourly; !- [J]
Output:Meter:Cumulative,General:InteriorLights:Electricity:Zone:DINING_FLR_5 ZN,hourly; !- [J]
Output:Meter,Electricity:Zone:ER_EXAM1_MULT4_FLR_1 ZN,hourly; !- [J]
Output:Meter:Cumulative,Electricity:Zone:ER_EXAM1_MULT4_FLR_1 ZN,hourly; !- [J]
Output:Meter,InteriorLights:Electricity:Zone:ER_EXAM1_MULT4_FLR_1 ZN,hourly; !- [J]
Output:Meter:Cumulative,InteriorLights:Electricity:Zone:ER_EXAM1_MULT4_FLR_1 ZN,hourly; !- [J]
Output:Meter,General:InteriorLights:Electricity:Zone:ER_EXAM1_MULT4_FLR_1 ZN,hourly; !- [J]
Output:Meter:Cumulative,General:InteriorLights:Electricity:Zone:ER_EXAM1_MULT4_FLR_1 ZN,hourly; !- [J]
Output:Meter,Electricity:Zone:ER_EXAM3_MULT4_FLR_1 ZN,hourly; !- [J]
Output:Meter:Cumulative,Electricity:Zone:ER_EXAM3_MULT4_FLR_1 ZN,hourly; !- [J]
Output:Meter,InteriorLights:Electricity:Zone:ER_EXAM3_MULT4_FLR_1 ZN,hourly; !- [J]
Output:Meter:Cumulative,InteriorLights:Electricity:Zone:ER_EXAM3_MULT4_FLR_1 ZN,hourly; !- [J]
Output:Meter,General:InteriorLights:Electricity:Zone:ER_EXAM3_MULT4_FLR_1 ZN,hourly; !- [J]
Output:Meter:Cumulative,General:InteriorLights:Electricity:Zone:ER_EXAM3_MULT4_FLR_1 ZN,hourly; !- [J]
Output:Meter,Electricity:Zone:ER_NURSESTN_LOBBY_FLR_1 ZN,hourly; !- [J]
Output:Meter:Cumulative,Electricity:Zone:ER_NURSESTN_LOBBY_FLR_1 ZN,hourly; !- [J]
Output:Meter,InteriorLights:Electricity:Zone:ER_NURSESTN_LOBBY_FLR_1 ZN,hourly; !- [J]
Output:Meter:Cumulative,InteriorLights:Electricity:Zone:ER_NURSESTN_LOBBY_FLR_1 ZN,hourly; !- [J]
Output:Meter,General:InteriorLights:Electricity:Zone:ER_NURSESTN_LOBBY_FLR_1 ZN,hourly; !- [J]
Output:Meter:Cumulative,General:InteriorLights:Electricity:Zone:ER_NURSESTN_LOBBY_FLR_1 ZN,hourly; !- [J]
Output:Meter,Electricity:Zone:ER_TRAUMA1_FLR_1 ZN,hourly; !- [J]
Output:Meter:Cumulative,Electricity:Zone:ER_TRAUMA1_FLR_1 ZN,hourly; !- [J]
Output:Meter,InteriorLights:Electricity:Zone:ER_TRAUMA1_FLR_1 ZN,hourly; !- [J]
Output:Meter:Cumulative,InteriorLights:Electricity:Zone:ER_TRAUMA1_FLR_1 ZN,hourly; !- [J]
Output:Meter,General:InteriorLights:Electricity:Zone:ER_TRAUMA1_FLR_1 ZN,hourly; !- [J]
Output:Meter:Cumulative,General:InteriorLights:Electricity:Zone:ER_TRAUMA1_FLR_1 ZN,hourly; !- [J]
Output:Meter,Electricity:Zone:ER_TRAUMA2_FLR_1 ZN,hourly; !- [J]
Output:Meter:Cumulative,Electricity:Zone:ER_TRAUMA2_FLR_1 ZN,hourly; !- [J]
Output:Meter,InteriorLights:Electricity:Zone:ER_TRAUMA2_FLR_1 ZN,hourly; !- [J]
Output:Meter:Cumulative,InteriorLights:Electricity:Zone:ER_TRAUMA2_FLR_1 ZN,hourly; !- [J]
Output:Meter,General:InteriorLights:Electricity:Zone:ER_TRAUMA2_FLR_1 ZN,hourly; !- [J]
Output:Meter:Cumulative,General:InteriorLights:Electricity:Zone:ER_TRAUMA2_FLR_1 ZN,hourly; !- [J]
Output:Meter,Electricity:Zone:ER_TRIAGE_MULT4_FLR_1 ZN,hourly; !- [J]
Output:Meter:Cumulative,Electricity:Zone:ER_TRIAGE_MULT4_FLR_1 ZN,hourly; !- [J]
Output:Meter,InteriorLights:Electricity:Zone:ER_TRIAGE_MULT4_FLR_1 ZN,hourly; !- [J]
Output:Meter:Cumulative,InteriorLights:Electricity:Zone:ER_TRIAGE_MULT4_FLR_1 ZN,hourly; !- [J]
Output:Meter,General:InteriorLights:Electricity:Zone:ER_TRIAGE_MULT4_FLR_1 ZN,hourly; !- [J]
Output:Meter:Cumulative,General:InteriorLights:Electricity:Zone:ER_TRIAGE_MULT4_FLR_1 ZN,hourly; !- [J]
Output:Meter,Electricity:Zone:ICU_NURSESTN_LOBBY_FLR_2 ZN,hourly; !- [J]
Output:Meter:Cumulative,Electricity:Zone:ICU_NURSESTN_LOBBY_FLR_2 ZN,hourly; !- [J]
Output:Meter,InteriorLights:Electricity:Zone:ICU_NURSESTN_LOBBY_FLR_2 ZN,hourly; !- [J]
Output:Meter:Cumulative,InteriorLights:Electricity:Zone:ICU_NURSESTN_LOBBY_FLR_2 ZN,hourly; !- [J]
Output:Meter,General:InteriorLights:Electricity:Zone:ICU_NURSESTN_LOBBY_FLR_2 ZN,hourly; !- [J]
Output:Meter:Cumulative,General:InteriorLights:Electricity:Zone:ICU_NURSESTN_LOBBY_FLR_2 ZN,hourly; !- [J]
Output:Meter,Electricity:Zone:ICU_FLR_2 ZN,hourly; !- [J]
Output:Meter:Cumulative,Electricity:Zone:ICU_FLR_2 ZN,hourly; !- [J]
Output:Meter,InteriorLights:Electricity:Zone:ICU_FLR_2 ZN,hourly; !- [J]
Output:Meter:Cumulative,InteriorLights:Electricity:Zone:ICU_FLR_2 ZN,hourly; !- [J]
Output:Meter,General:InteriorLights:Electricity:Zone:ICU_FLR_2 ZN,hourly; !- [J]
Output:Meter:Cumulative,General:InteriorLights:Electricity:Zone:ICU_FLR_2 ZN,hourly; !- [J]
Output:Meter,Electricity:Zone:IC_PATROOM1_MULT5_FLR_2 ZN,hourly; !- [J]
Output:Meter:Cumulative,Electricity:Zone:IC_PATROOM1_MULT5_FLR_2 ZN,hourly; !- [J]
Output:Meter,InteriorLights:Electricity:Zone:IC_PATROOM1_MULT5_FLR_2 ZN,hourly; !- [J]
Output:Meter:Cumulative,InteriorLights:Electricity:Zone:IC_PATROOM1_MULT5_FLR_2 ZN,hourly; !- [J]
Output:Meter,General:InteriorLights:Electricity:Zone:IC_PATROOM1_MULT5_FLR_2 ZN,hourly; !- [J]
Output:Meter:Cumulative,General:InteriorLights:Electricity:Zone:IC_PATROOM1_MULT5_FLR_2 ZN,hourly; !- [J]
Output:Meter,Electricity:Zone:IC_PATROOM2_FLR_2 ZN,hourly; !- [J]
Output:Meter:Cumulative,Electricity:Zone:IC_PATROOM2_FLR_2 ZN,hourly; !- [J]
Output:Meter,InteriorLights:Electricity:Zone:IC_PATROOM2_FLR_2 ZN,hourly; !- [J]
Output:Meter:Cumulative,InteriorLights:Electricity:Zone:IC_PATROOM2_FLR_2 ZN,hourly; !- [J]
Output:Meter,General:InteriorLights:Electricity:Zone:IC_PATROOM2_FLR_2 ZN,hourly; !- [J]
Output:Meter:Cumulative,General:InteriorLights:Electricity:Zone:IC_PATROOM2_FLR_2 ZN,hourly; !- [J]
Output:Meter,Electricity:Zone:IC_PATROOM3_MULT6_FLR_2 ZN,hourly; !- [J]
Output:Meter:Cumulative,Electricity:Zone:IC_PATROOM3_MULT6_FLR_2 ZN,hourly; !- [J]
Output:Meter,InteriorLights:Electricity:Zone:IC_PATROOM3_MULT6_FLR_2 ZN,hourly; !- [J]
Output:Meter:Cumulative,InteriorLights:Electricity:Zone:IC_PATROOM3_MULT6_FLR_2 ZN,hourly; !- [J]
Output:Meter,General:InteriorLights:Electricity:Zone:IC_PATROOM3_MULT6_FLR_2 ZN,hourly; !- [J]
Output:Meter:Cumulative,General:InteriorLights:Electricity:Zone:IC_PATROOM3_MULT6_FLR_2 ZN,hourly; !- [J]
Output:Meter,Electricity:Zone:KITCHEN_FLR_5 ZN,hourly; !- [J]
Output:Meter:Cumulative,Electricity:Zone:KITCHEN_FLR_5 ZN,hourly; !- [J]
Output:Meter,InteriorLights:Electricity:Zone:KITCHEN_FLR_5 ZN,hourly; !- [J]
Output:Meter:Cumulative,InteriorLights:Electricity:Zone:KITCHEN_FLR_5 ZN,hourly; !- [J]
Output:Meter,General:InteriorLights:Electricity:Zone:KITCHEN_FLR_5 ZN,hourly; !- [J]
Output:Meter:Cumulative,General:InteriorLights:Electricity:Zone:KITCHEN_FLR_5 ZN,hourly; !- [J]
Output:Meter,Electricity:Zone:LAB_FLR_3 ZN,hourly; !- [J]
Output:Meter:Cumulative,Electricity:Zone:LAB_FLR_3 ZN,hourly; !- [J]
Output:Meter,InteriorLights:Electricity:Zone:LAB_FLR_3 ZN,hourly; !- [J]
Output:Meter:Cumulative,InteriorLights:Electricity:Zone:LAB_FLR_3 ZN,hourly; !- [J]
Output:Meter,General:InteriorLights:Electricity:Zone:LAB_FLR_3 ZN,hourly; !- [J]
Output:Meter:Cumulative,General:InteriorLights:Electricity:Zone:LAB_FLR_3 ZN,hourly; !- [J]
Output:Meter,Electricity:Zone:LAB_FLR_4 ZN,hourly; !- [J]
Output:Meter:Cumulative,Electricity:Zone:LAB_FLR_4 ZN,hourly; !- [J]
Output:Meter,InteriorLights:Electricity:Zone:LAB_FLR_4 ZN,hourly; !- [J]
Output:Meter:Cumulative,InteriorLights:Electricity:Zone:LAB_FLR_4 ZN,hourly; !- [J]
Output:Meter,General:InteriorLights:Electricity:Zone:LAB_FLR_4 ZN,hourly; !- [J]
Output:Meter:Cumulative,General:InteriorLights:Electricity:Zone:LAB_FLR_4 ZN,hourly; !- [J]
Output:Meter,Electricity:Zone:LOBBY_RECORDS_FLR_1 ZN,hourly; !- [J]
Output:Meter:Cumulative,Electricity:Zone:LOBBY_RECORDS_FLR_1 ZN,hourly; !- [J]
Output:Meter,InteriorLights:Electricity:Zone:LOBBY_RECORDS_FLR_1 ZN,hourly; !- [J]
Output:Meter:Cumulative,InteriorLights:Electricity:Zone:LOBBY_RECORDS_FLR_1 ZN,hourly; !- [J]
Output:Meter,General:InteriorLights:Electricity:Zone:LOBBY_RECORDS_FLR_1 ZN,hourly; !- [J]
Output:Meter:Cumulative,General:InteriorLights:Electricity:Zone:LOBBY_RECORDS_FLR_1 ZN,hourly; !- [J]
Output:Meter,Electricity:Zone:NURSESTN_LOBBY_FLR_3 ZN,hourly; !- [J]
Output:Meter:Cumulative,Electricity:Zone:NURSESTN_LOBBY_FLR_3 ZN,hourly; !- [J]
Output:Meter,InteriorLights:Electricity:Zone:NURSESTN_LOBBY_FLR_3 ZN,hourly; !- [J]
Output:Meter:Cumulative,InteriorLights:Electricity:Zone:NURSESTN_LOBBY_FLR_3 ZN,hourly; !- [J]
Output:Meter,General:InteriorLights:Electricity:Zone:NURSESTN_LOBBY_FLR_3 ZN,hourly; !- [J]
Output:Meter:Cumulative,General:InteriorLights:Electricity:Zone:NURSESTN_LOBBY_FLR_3 ZN,hourly; !- [J]
Output:Meter,Electricity:Zone:NURSESTN_LOBBY_FLR_4 ZN,hourly; !- [J]
Output:Meter:Cumulative,Electricity:Zone:NURSESTN_LOBBY_FLR_4 ZN,hourly; !- [J]
Output:Meter,InteriorLights:Electricity:Zone:NURSESTN_LOBBY_FLR_4 ZN,hourly; !- [J]
Output:Meter:Cumulative,InteriorLights:Electricity:Zone:NURSESTN_LOBBY_FLR_4 ZN,hourly; !- [J]
Output:Meter,General:InteriorLights:Electricity:Zone:NURSESTN_LOBBY_FLR_4 ZN,hourly; !- [J]
Output:Meter:Cumulative,General:InteriorLights:Electricity:Zone:NURSESTN_LOBBY_FLR_4 ZN,hourly; !- [J]
Output:Meter,Electricity:Zone:NURSESTN_LOBBY_FLR_5 ZN,hourly; !- [J]
Output:Meter:Cumulative,Electricity:Zone:NURSESTN_LOBBY_FLR_5 ZN,hourly; !- [J]
Output:Meter,InteriorLights:Electricity:Zone:NURSESTN_LOBBY_FLR_5 ZN,hourly; !- [J]
Output:Meter:Cumulative,InteriorLights:Electricity:Zone:NURSESTN_LOBBY_FLR_5 ZN,hourly; !- [J]
Output:Meter,General:InteriorLights:Electricity:Zone:NURSESTN_LOBBY_FLR_5 ZN,hourly; !- [J]
Output:Meter:Cumulative,General:InteriorLights:Electricity:Zone:NURSESTN_LOBBY_FLR_5 ZN,hourly; !- [J]
Output:Meter,Electricity:Zone:OR_NURSESTN_LOBBY_FLR_2 ZN,hourly; !- [J]
Output:Meter:Cumulative,Electricity:Zone:OR_NURSESTN_LOBBY_FLR_2 ZN,hourly; !- [J]
Output:Meter,InteriorLights:Electricity:Zone:OR_NURSESTN_LOBBY_FLR_2 ZN,hourly; !- [J]
Output:Meter:Cumulative,InteriorLights:Electricity:Zone:OR_NURSESTN_LOBBY_FLR_2 ZN,hourly; !- [J]
Output:Meter,General:InteriorLights:Electricity:Zone:OR_NURSESTN_LOBBY_FLR_2 ZN,hourly; !- [J]
Output:Meter:Cumulative,General:InteriorLights:Electricity:Zone:OR_NURSESTN_LOBBY_FLR_2 ZN,hourly; !- [J]
Output:Meter,Electricity:Zone:OFFICE1_FLR_5 ZN,hourly; !- [J]
Output:Meter:Cumulative,Electricity:Zone:OFFICE1_FLR_5 ZN,hourly; !- [J]
Output:Meter,InteriorLights:Electricity:Zone:OFFICE1_FLR_5 ZN,hourly; !- [J]
Output:Meter:Cumulative,InteriorLights:Electricity:Zone:OFFICE1_FLR_5 ZN,hourly; !- [J]
Output:Meter,General:InteriorLights:Electricity:Zone:OFFICE1_FLR_5 ZN,hourly; !- [J]
Output:Meter:Cumulative,General:InteriorLights:Electricity:Zone:OFFICE1_FLR_5 ZN,hourly; !- [J]
Output:Meter,Electricity:Zone:OFFICE1_MULT4_FLR_1 ZN,hourly; !- [J]
Output:Meter:Cumulative,Electricity:Zone:OFFICE1_MULT4_FLR_1 ZN,hourly; !- [J]
Output:Meter,InteriorLights:Electricity:Zone:OFFICE1_MULT4_FLR_1 ZN,hourly; !- [J]
Output:Meter:Cumulative,InteriorLights:Electricity:Zone:OFFICE1_MULT4_FLR_1 ZN,hourly; !- [J]
Output:Meter,General:InteriorLights:Electricity:Zone:OFFICE1_MULT4_FLR_1 ZN,hourly; !- [J]
Output:Meter:Cumulative,General:InteriorLights:Electricity:Zone:OFFICE1_MULT4_FLR_1 ZN,hourly; !- [J]
Output:Meter,Electricity:Zone:OFFICE2_MULT5_FLR_5 ZN,hourly; !- [J]
Output:Meter:Cumulative,Electricity:Zone:OFFICE2_MULT5_FLR_5 ZN,hourly; !- [J]
Output:Meter,InteriorLights:Electricity:Zone:OFFICE2_MULT5_FLR_5 ZN,hourly; !- [J]
Output:Meter:Cumulative,InteriorLights:Electricity:Zone:OFFICE2_MULT5_FLR_5 ZN,hourly; !- [J]
Output:Meter,General:InteriorLights:Electricity:Zone:OFFICE2_MULT5_FLR_5 ZN,hourly; !- [J]
Output:Meter:Cumulative,General:InteriorLights:Electricity:Zone:OFFICE2_MULT5_FLR_5 ZN,hourly; !- [J]
Output:Meter,Electricity:Zone:OFFICE3_FLR_5 ZN,hourly; !- [J]
Output:Meter:Cumulative,Electricity:Zone:OFFICE3_FLR_5 ZN,hourly; !- [J]
Output:Meter,InteriorLights:Electricity:Zone:OFFICE3_FLR_5 ZN,hourly; !- [J]
Output:Meter:Cumulative,InteriorLights:Electricity:Zone:OFFICE3_FLR_5 ZN,hourly; !- [J]
Output:Meter,General:InteriorLights:Electricity:Zone:OFFICE3_FLR_5 ZN,hourly; !- [J]
Output:Meter:Cumulative,General:InteriorLights:Electricity:Zone:OFFICE3_FLR_5 ZN,hourly; !- [J]
Output:Meter,Electricity:Zone:OFFICE4_MULT6_FLR_5 ZN,hourly; !- [J]
Output:Meter:Cumulative,Electricity:Zone:OFFICE4_MULT6_FLR_5 ZN,hourly; !- [J]
Output:Meter,InteriorLights:Electricity:Zone:OFFICE4_MULT6_FLR_5 ZN,hourly; !- [J]
Output:Meter:Cumulative,InteriorLights:Electricity:Zone:OFFICE4_MULT6_FLR_5 ZN,hourly; !- [J]
Output:Meter,General:InteriorLights:Electricity:Zone:OFFICE4_MULT6_FLR_5 ZN,hourly; !- [J]
Output:Meter:Cumulative,General:InteriorLights:Electricity:Zone:OFFICE4_MULT6_FLR_5 ZN,hourly; !- [J]
Output:Meter,Electricity:Zone:OR1_FLR_2 ZN,hourly; !- [J]
Output:Meter:Cumulative,Electricity:Zone:OR1_FLR_2 ZN,hourly; !- [J]
Output:Meter,InteriorLights:Electricity:Zone:OR1_FLR_2 ZN,hourly; !- [J]
Output:Meter:Cumulative,InteriorLights:Electricity:Zone:OR1_FLR_2 ZN,hourly; !- [J]
Output:Meter,General:InteriorLights:Electricity:Zone:OR1_FLR_2 ZN,hourly; !- [J]
Output:Meter:Cumulative,General:InteriorLights:Electricity:Zone:OR1_FLR_2 ZN,hourly; !- [J]
Output:Meter,Electricity:Zone:OR2_MULT5_FLR_2 ZN,hourly; !- [J]
Output:Meter:Cumulative,Electricity:Zone:OR2_MULT5_FLR_2 ZN,hourly; !- [J]
Output:Meter,InteriorLights:Electricity:Zone:OR2_MULT5_FLR_2 ZN,hourly; !- [J]
Output:Meter:Cumulative,InteriorLights:Electricity:Zone:OR2_MULT5_FLR_2 ZN,hourly; !- [J]
Output:Meter,General:InteriorLights:Electricity:Zone:OR2_MULT5_FLR_2 ZN,hourly; !- [J]
Output:Meter:Cumulative,General:InteriorLights:Electricity:Zone:OR2_MULT5_FLR_2 ZN,hourly; !- [J]
Output:Meter,Electricity:Zone:OR3_FLR_2 ZN,hourly; !- [J]
Output:Meter:Cumulative,Electricity:Zone:OR3_FLR_2 ZN,hourly; !- [J]
Output:Meter,InteriorLights:Electricity:Zone:OR3_FLR_2 ZN,hourly; !- [J]
Output:Meter:Cumulative,InteriorLights:Electricity:Zone:OR3_FLR_2 ZN,hourly; !- [J]
Output:Meter,General:InteriorLights:Electricity:Zone:OR3_FLR_2 ZN,hourly; !- [J]
Output:Meter:Cumulative,General:InteriorLights:Electricity:Zone:OR3_FLR_2 ZN,hourly; !- [J]
Output:Meter,Electricity:Zone:OR4_FLR_2 ZN,hourly; !- [J]
Output:Meter:Cumulative,Electricity:Zone:OR4_FLR_2 ZN,hourly; !- [J]
Output:Meter,InteriorLights:Electricity:Zone:OR4_FLR_2 ZN,hourly; !- [J]
Output:Meter:Cumulative,InteriorLights:Electricity:Zone:OR4_FLR_2 ZN,hourly; !- [J]
Output:Meter,General:InteriorLights:Electricity:Zone:OR4_FLR_2 ZN,hourly; !- [J]
Output:Meter:Cumulative,General:InteriorLights:Electricity:Zone:OR4_FLR_2 ZN,hourly; !- [J]
Output:Meter,Electricity:Zone:PATROOM1_MULT10_FLR_3 ZN,hourly; !- [J]
Output:Meter:Cumulative,Electricity:Zone:PATROOM1_MULT10_FLR_3 ZN,hourly; !- [J]
Output:Meter,InteriorLights:Electricity:Zone:PATROOM1_MULT10_FLR_3 ZN,hourly; !- [J]
Output:Meter:Cumulative,InteriorLights:Electricity:Zone:PATROOM1_MULT10_FLR_3 ZN,hourly; !- [J]
Output:Meter,General:InteriorLights:Electricity:Zone:PATROOM1_MULT10_FLR_3 ZN,hourly; !- [J]
Output:Meter:Cumulative,General:InteriorLights:Electricity:Zone:PATROOM1_MULT10_FLR_3 ZN,hourly; !- [J]
Output:Meter,Electricity:Zone:PATROOM1_MULT10_FLR_4 ZN,hourly; !- [J]
Output:Meter:Cumulative,Electricity:Zone:PATROOM1_MULT10_FLR_4 ZN,hourly; !- [J]
Output:Meter,InteriorLights:Electricity:Zone:PATROOM1_MULT10_FLR_4 ZN,hourly; !- [J]
Output:Meter:Cumulative,InteriorLights:Electricity:Zone:PATROOM1_MULT10_FLR_4 ZN,hourly; !- [J]
Output:Meter,General:InteriorLights:Electricity:Zone:PATROOM1_MULT10_FLR_4 ZN,hourly; !- [J]
Output:Meter:Cumulative,General:InteriorLights:Electricity:Zone:PATROOM1_MULT10_FLR_4 ZN,hourly; !- [J]
Output:Meter,Electricity:Zone:PATROOM2_FLR_3 ZN,hourly; !- [J]
Output:Meter:Cumulative,Electricity:Zone:PATROOM2_FLR_3 ZN,hourly; !- [J]
Output:Meter,InteriorLights:Electricity:Zone:PATROOM2_FLR_3 ZN,hourly; !- [J]
Output:Meter:Cumulative,InteriorLights:Electricity:Zone:PATROOM2_FLR_3 ZN,hourly; !- [J]
Output:Meter,General:InteriorLights:Electricity:Zone:PATROOM2_FLR_3 ZN,hourly; !- [J]
Output:Meter:Cumulative,General:InteriorLights:Electricity:Zone:PATROOM2_FLR_3 ZN,hourly; !- [J]
Output:Meter,Electricity:Zone:PATROOM2_FLR_4 ZN,hourly; !- [J]
Output:Meter:Cumulative,Electricity:Zone:PATROOM2_FLR_4 ZN,hourly; !- [J]
Output:Meter,InteriorLights:Electricity:Zone:PATROOM2_FLR_4 ZN,hourly; !- [J]
Output:Meter:Cumulative,InteriorLights:Electricity:Zone:PATROOM2_FLR_4 ZN,hourly; !- [J]
Output:Meter,General:InteriorLights:Electricity:Zone:PATROOM2_FLR_4 ZN,hourly; !- [J]
Output:Meter:Cumulative,General:InteriorLights:Electricity:Zone:PATROOM2_FLR_4 ZN,hourly; !- [J]
Output:Meter,Electricity:Zone:PATROOM3_MULT10_FLR_3 ZN,hourly; !- [J]
Output:Meter:Cumulative,Electricity:Zone:PATROOM3_MULT10_FLR_3 ZN,hourly; !- [J]
Output:Meter,InteriorLights:Electricity:Zone:PATROOM3_MULT10_FLR_3 ZN,hourly; !- [J]
Output:Meter:Cumulative,InteriorLights:Electricity:Zone:PATROOM3_MULT10_FLR_3 ZN,hourly; !- [J]
Output:Meter,General:InteriorLights:Electricity:Zone:PATROOM3_MULT10_FLR_3 ZN,hourly; !- [J]
Output:Meter:Cumulative,General:InteriorLights:Electricity:Zone:PATROOM3_MULT10_FLR_3 ZN,hourly; !- [J]
Output:Meter,Electricity:Zone:PATROOM3_MULT10_FLR_4 ZN,hourly; !- [J]
Output:Meter:Cumulative,Electricity:Zone:PATROOM3_MULT10_FLR_4 ZN,hourly; !- [J]
Output:Meter,InteriorLights:Electricity:Zone:PATROOM3_MULT10_FLR_4 ZN,hourly; !- [J]
Output:Meter:Cumulative,InteriorLights:Electricity:Zone:PATROOM3_MULT10_FLR_4 ZN,hourly; !- [J]
Output:Meter,General:InteriorLights:Electricity:Zone:PATROOM3_MULT10_FLR_4 ZN,hourly; !- [J]
Output:Meter:Cumulative,General:InteriorLights:Electricity:Zone:PATROOM3_MULT10_FLR_4 ZN,hourly; !- [J]
Output:Meter,Electricity:Zone:PATROOM4_FLR_3 ZN,hourly; !- [J]
Output:Meter:Cumulative,Electricity:Zone:PATROOM4_FLR_3 ZN,hourly; !- [J]
Output:Meter,InteriorLights:Electricity:Zone:PATROOM4_FLR_3 ZN,hourly; !- [J]
Output:Meter:Cumulative,InteriorLights:Electricity:Zone:PATROOM4_FLR_3 ZN,hourly; !- [J]
Output:Meter,General:InteriorLights:Electricity:Zone:PATROOM4_FLR_3 ZN,hourly; !- [J]
Output:Meter:Cumulative,General:InteriorLights:Electricity:Zone:PATROOM4_FLR_3 ZN,hourly; !- [J]
Output:Meter,Electricity:Zone:PATROOM4_FLR_4 ZN,hourly; !- [J]
Output:Meter:Cumulative,Electricity:Zone:PATROOM4_FLR_4 ZN,hourly; !- [J]
Output:Meter,InteriorLights:Electricity:Zone:PATROOM4_FLR_4 ZN,hourly; !- [J]
Output:Meter:Cumulative,InteriorLights:Electricity:Zone:PATROOM4_FLR_4 ZN,hourly; !- [J]
Output:Meter,General:InteriorLights:Electricity:Zone:PATROOM4_FLR_4 ZN,hourly; !- [J]
Output:Meter:Cumulative,General:InteriorLights:Electricity:Zone:PATROOM4_FLR_4 ZN,hourly; !- [J]
Output:Meter,Electricity:Zone:PATROOM5_MULT10_FLR_3 ZN,hourly; !- [J]
Output:Meter:Cumulative,Electricity:Zone:PATROOM5_MULT10_FLR_3 ZN,hourly; !- [J]
Output:Meter,InteriorLights:Electricity:Zone:PATROOM5_MULT10_FLR_3 ZN,hourly; !- [J]
Output:Meter:Cumulative,InteriorLights:Electricity:Zone:PATROOM5_MULT10_FLR_3 ZN,hourly; !- [J]
Output:Meter,General:InteriorLights:Electricity:Zone:PATROOM5_MULT10_FLR_3 ZN,hourly; !- [J]
Output:Meter:Cumulative,General:InteriorLights:Electricity:Zone:PATROOM5_MULT10_FLR_3 ZN,hourly; !- [J]
Output:Meter,Electricity:Zone:PATROOM5_MULT10_FLR_4 ZN,hourly; !- [J]
Output:Meter:Cumulative,Electricity:Zone:PATROOM5_MULT10_FLR_4 ZN,hourly; !- [J]
Output:Meter,InteriorLights:Electricity:Zone:PATROOM5_MULT10_FLR_4 ZN,hourly; !- [J]
Output:Meter:Cumulative,InteriorLights:Electricity:Zone:PATROOM5_MULT10_FLR_4 ZN,hourly; !- [J]
Output:Meter,General:InteriorLights:Electricity:Zone:PATROOM5_MULT10_FLR_4 ZN,hourly; !- [J]
Output:Meter:Cumulative,General:InteriorLights:Electricity:Zone:PATROOM5_MULT10_FLR_4 ZN,hourly; !- [J]
Output:Meter,Electricity:Zone:PATROOM6_FLR_3 ZN,hourly; !- [J]
Output:Meter:Cumulative,Electricity:Zone:PATROOM6_FLR_3 ZN,hourly; !- [J]
Output:Meter,InteriorLights:Electricity:Zone:PATROOM6_FLR_3 ZN,hourly; !- [J]
Output:Meter:Cumulative,InteriorLights:Electricity:Zone:PATROOM6_FLR_3 ZN,hourly; !- [J]
Output:Meter,General:InteriorLights:Electricity:Zone:PATROOM6_FLR_3 ZN,hourly; !- [J]
Output:Meter:Cumulative,General:InteriorLights:Electricity:Zone:PATROOM6_FLR_3 ZN,hourly; !- [J]
Output:Meter,Electricity:Zone:PATROOM6_FLR_4 ZN,hourly; !- [J]
Output:Meter:Cumulative,Electricity:Zone:PATROOM6_FLR_4 ZN,hourly; !- [J]
Output:Meter,InteriorLights:Electricity:Zone:PATROOM6_FLR_4 ZN,hourly; !- [J]
Output:Meter:Cumulative,InteriorLights:Electricity:Zone:PATROOM6_FLR_4 ZN,hourly; !- [J]
Output:Meter,General:InteriorLights:Electricity:Zone:PATROOM6_FLR_4 ZN,hourly; !- [J]
Output:Meter:Cumulative,General:InteriorLights:Electricity:Zone:PATROOM6_FLR_4 ZN,hourly; !- [J]
Output:Meter,Electricity:Zone:PATROOM7_MULT10_FLR_3 ZN,hourly; !- [J]
Output:Meter:Cumulative,Electricity:Zone:PATROOM7_MULT10_FLR_3 ZN,hourly; !- [J]
Output:Meter,InteriorLights:Electricity:Zone:PATROOM7_MULT10_FLR_3 ZN,hourly; !- [J]
Output:Meter:Cumulative,InteriorLights:Electricity:Zone:PATROOM7_MULT10_FLR_3 ZN,hourly; !- [J]
Output:Meter,General:InteriorLights:Electricity:Zone:PATROOM7_MULT10_FLR_3 ZN,hourly; !- [J]
Output:Meter:Cumulative,General:InteriorLights:Electricity:Zone:PATROOM7_MULT10_FLR_3 ZN,hourly; !- [J]
Output:Meter,Electricity:Zone:PATROOM7_MULT10_FLR_4 ZN,hourly; !- [J]
Output:Meter:Cumulative,Electricity:Zone:PATROOM7_MULT10_FLR_4 ZN,hourly; !- [J]
Output:Meter,InteriorLights:Electricity:Zone:PATROOM7_MULT10_FLR_4 ZN,hourly; !- [J]
Output:Meter:Cumulative,InteriorLights:Electricity:Zone:PATROOM7_MULT10_FLR_4 ZN,hourly; !- [J]
Output:Meter,General:InteriorLights:Electricity:Zone:PATROOM7_MULT10_FLR_4 ZN,hourly; !- [J]
Output:Meter:Cumulative,General:InteriorLights:Electricity:Zone:PATROOM7_MULT10_FLR_4 ZN,hourly; !- [J]
Output:Meter,Electricity:Zone:PATROOM8_FLR_3 ZN,hourly; !- [J]
Output:Meter:Cumulative,Electricity:Zone:PATROOM8_FLR_3 ZN,hourly; !- [J]
Output:Meter,InteriorLights:Electricity:Zone:PATROOM8_FLR_3 ZN,hourly; !- [J]
Output:Meter:Cumulative,InteriorLights:Electricity:Zone:PATROOM8_FLR_3 ZN,hourly; !- [J]
Output:Meter,General:InteriorLights:Electricity:Zone:PATROOM8_FLR_3 ZN,hourly; !- [J]
Output:Meter:Cumulative,General:InteriorLights:Electricity:Zone:PATROOM8_FLR_3 ZN,hourly; !- [J]
Output:Meter,Electricity:Zone:PATROOM8_FLR_4 ZN,hourly; !- [J]
Output:Meter:Cumulative,Electricity:Zone:PATROOM8_FLR_4 ZN,hourly; !- [J]
Output:Meter,InteriorLights:Electricity:Zone:PATROOM8_FLR_4 ZN,hourly; !- [J]
Output:Meter:Cumulative,InteriorLights:Electricity:Zone:PATROOM8_FLR_4 ZN,hourly; !- [J]
Output:Meter,General:InteriorLights:Electricity:Zone:PATROOM8_FLR_4 ZN,hourly; !- [J]
Output:Meter:Cumulative,General:InteriorLights:Electricity:Zone:PATROOM8_FLR_4 ZN,hourly; !- [J]
Output:Meter,Electricity:Zone:PHYSTHERAPY_FLR_3 ZN,hourly; !- [J]
Output:Meter:Cumulative,Electricity:Zone:PHYSTHERAPY_FLR_3 ZN,hourly; !- [J]
Output:Meter,InteriorLights:Electricity:Zone:PHYSTHERAPY_FLR_3 ZN,hourly; !- [J]
Output:Meter:Cumulative,InteriorLights:Electricity:Zone:PHYSTHERAPY_FLR_3 ZN,hourly; !- [J]
Output:Meter,General:InteriorLights:Electricity:Zone:PHYSTHERAPY_FLR_3 ZN,hourly; !- [J]
Output:Meter:Cumulative,General:InteriorLights:Electricity:Zone:PHYSTHERAPY_FLR_3 ZN,hourly; !- [J]
Output:Meter,Electricity:Zone:RADIOLOGY_FLR_4 ZN,hourly; !- [J]
Output:Meter:Cumulative,Electricity:Zone:RADIOLOGY_FLR_4 ZN,hourly; !- [J]
Output:Meter,InteriorLights:Electricity:Zone:RADIOLOGY_FLR_4 ZN,hourly; !- [J]
Output:Meter:Cumulative,InteriorLights:Electricity:Zone:RADIOLOGY_FLR_4 ZN,hourly; !- [J]
Output:Meter,General:InteriorLights:Electricity:Zone:RADIOLOGY_FLR_4 ZN,hourly; !- [J]
Output:Meter:Cumulative,General:InteriorLights:Electricity:Zone:RADIOLOGY_FLR_4 ZN,hourly; !- [J]
Output:Meter,InteriorEquipment:Electricity,hourly; !- [J]
Output:Meter:Cumulative,InteriorEquipment:Electricity,hourly; !- [J]
Output:Meter,InteriorEquipment:Electricity:Zone:BASEMENT ZN,hourly; !- [J]
Output:Meter:Cumulative,InteriorEquipment:Electricity:Zone:BASEMENT ZN,hourly; !- [J]
Output:Meter,InteriorEquipment:Electricity:SpaceType:GENERAL,hourly; !- [J]
Output:Meter:Cumulative,InteriorEquipment:Electricity:SpaceType:GENERAL,hourly; !- [J]
Output:Meter,General:InteriorEquipment:Electricity,hourly; !- [J]
Output:Meter:Cumulative,General:InteriorEquipment:Electricity,hourly; !- [J]
Output:Meter,General:InteriorEquipment:Electricity:Zone:BASEMENT ZN,hourly; !- [J]
Output:Meter:Cumulative,General:InteriorEquipment:Electricity:Zone:BASEMENT ZN,hourly; !- [J]
Output:Meter,General:InteriorEquipment:Electricity:SpaceType:GENERAL,hourly; !- [J]
Output:Meter:Cumulative,General:InteriorEquipment:Electricity:SpaceType:GENERAL,hourly; !- [J]
Output:Meter,InteriorEquipment:Electricity:Zone:DINING_FLR_5 ZN,hourly; !- [J]
Output:Meter:Cumulative,InteriorEquipment:Electricity:Zone:DINING_FLR_5 ZN,hourly; !- [J]
Output:Meter,General:InteriorEquipment:Electricity:Zone:DINING_FLR_5 ZN,hourly; !- [J]
Output:Meter:Cumulative,General:InteriorEquipment:Electricity:Zone:DINING_FLR_5 ZN,hourly; !- [J]
Output:Meter,InteriorEquipment:Electricity:Zone:ER_EXAM1_MULT4_FLR_1 ZN,hourly; !- [J]
Output:Meter:Cumulative,InteriorEquipment:Electricity:Zone:ER_EXAM1_MULT4_FLR_1 ZN,hourly; !- [J]
Output:Meter,General:InteriorEquipment:Electricity:Zone:ER_EXAM1_MULT4_FLR_1 ZN,hourly; !- [J]
Output:Meter:Cumulative,General:InteriorEquipment:Electricity:Zone:ER_EXAM1_MULT4_FLR_1 ZN,hourly; !- [J]
Output:Meter,InteriorEquipment:Electricity:Zone:ER_EXAM3_MULT4_FLR_1 ZN,hourly; !- [J]
Output:Meter:Cumulative,InteriorEquipment:Electricity:Zone:ER_EXAM3_MULT4_FLR_1 ZN,hourly; !- [J]
Output:Meter,General:InteriorEquipment:Electricity:Zone:ER_EXAM3_MULT4_FLR_1 ZN,hourly; !- [J]
Output:Meter:Cumulative,General:InteriorEquipment:Electricity:Zone:ER_EXAM3_MULT4_FLR_1 ZN,hourly; !- [J]
Output:Meter,InteriorEquipment:Electricity:Zone:ER_NURSESTN_LOBBY_FLR_1 ZN,hourly; !- [J]
Output:Meter:Cumulative,InteriorEquipment:Electricity:Zone:ER_NURSESTN_LOBBY_FLR_1 ZN,hourly; !- [J]
Output:Meter,General:InteriorEquipment:Electricity:Zone:ER_NURSESTN_LOBBY_FLR_1 ZN,hourly; !- [J]
Output:Meter:Cumulative,General:InteriorEquipment:Electricity:Zone:ER_NURSESTN_LOBBY_FLR_1 ZN,hourly; !- [J]
Output:Meter,InteriorEquipment:Electricity:Zone:ER_TRAUMA1_FLR_1 ZN,hourly; !- [J]
Output:Meter:Cumulative,InteriorEquipment:Electricity:Zone:ER_TRAUMA1_FLR_1 ZN,hourly; !- [J]
Output:Meter,General:InteriorEquipment:Electricity:Zone:ER_TRAUMA1_FLR_1 ZN,hourly; !- [J]
Output:Meter:Cumulative,General:InteriorEquipment:Electricity:Zone:ER_TRAUMA1_FLR_1 ZN,hourly; !- [J]
Output:Meter,InteriorEquipment:Electricity:Zone:ER_TRAUMA2_FLR_1 ZN,hourly; !- [J]
Output:Meter:Cumulative,InteriorEquipment:Electricity:Zone:ER_TRAUMA2_FLR_1 ZN,hourly; !- [J]
Output:Meter,General:InteriorEquipment:Electricity:Zone:ER_TRAUMA2_FLR_1 ZN,hourly; !- [J]
Output:Meter:Cumulative,General:InteriorEquipment:Electricity:Zone:ER_TRAUMA2_FLR_1 ZN,hourly; !- [J]
Output:Meter,InteriorEquipment:Electricity:Zone:ER_TRIAGE_MULT4_FLR_1 ZN,hourly; !- [J]
Output:Meter:Cumulative,InteriorEquipment:Electricity:Zone:ER_TRIAGE_MULT4_FLR_1 ZN,hourly; !- [J]
Output:Meter,General:InteriorEquipment:Electricity:Zone:ER_TRIAGE_MULT4_FLR_1 ZN,hourly; !- [J]
Output:Meter:Cumulative,General:InteriorEquipment:Electricity:Zone:ER_TRIAGE_MULT4_FLR_1 ZN,hourly; !- [J]
Output:Meter,InteriorEquipment:Electricity:Zone:ICU_NURSESTN_LOBBY_FLR_2 ZN,hourly; !- [J]
Output:Meter:Cumulative,InteriorEquipment:Electricity:Zone:ICU_NURSESTN_LOBBY_FLR_2 ZN,hourly; !- [J]
Output:Meter,General:InteriorEquipment:Electricity:Zone:ICU_NURSESTN_LOBBY_FLR_2 ZN,hourly; !- [J]
Output:Meter:Cumulative,General:InteriorEquipment:Electricity:Zone:ICU_NURSESTN_LOBBY_FLR_2 ZN,hourly; !- [J]
Output:Meter,InteriorEquipment:Electricity:Zone:ICU_FLR_2 ZN,hourly; !- [J]
Output:Meter:Cumulative,InteriorEquipment:Electricity:Zone:ICU_FLR_2 ZN,hourly; !- [J]
Output:Meter,General:InteriorEquipment:Electricity:Zone:ICU_FLR_2 ZN,hourly; !- [J]
Output:Meter:Cumulative,General:InteriorEquipment:Electricity:Zone:ICU_FLR_2 ZN,hourly; !- [J]
Output:Meter,InteriorEquipment:Electricity:Zone:IC_PATROOM1_MULT5_FLR_2 ZN,hourly; !- [J]
Output:Meter:Cumulative,InteriorEquipment:Electricity:Zone:IC_PATROOM1_MULT5_FLR_2 ZN,hourly; !- [J]
Output:Meter,General:InteriorEquipment:Electricity:Zone:IC_PATROOM1_MULT5_FLR_2 ZN,hourly; !- [J]
Output:Meter:Cumulative,General:InteriorEquipment:Electricity:Zone:IC_PATROOM1_MULT5_FLR_2 ZN,hourly; !- [J]
Output:Meter,InteriorEquipment:Electricity:Zone:IC_PATROOM2_FLR_2 ZN,hourly; !- [J]
Output:Meter:Cumulative,InteriorEquipment:Electricity:Zone:IC_PATROOM2_FLR_2 ZN,hourly; !- [J]
Output:Meter,General:InteriorEquipment:Electricity:Zone:IC_PATROOM2_FLR_2 ZN,hourly; !- [J]
Output:Meter:Cumulative,General:InteriorEquipment:Electricity:Zone:IC_PATROOM2_FLR_2 ZN,hourly; !- [J]
Output:Meter,InteriorEquipment:Electricity:Zone:IC_PATROOM3_MULT6_FLR_2 ZN,hourly; !- [J]
Output:Meter:Cumulative,InteriorEquipment:Electricity:Zone:IC_PATROOM3_MULT6_FLR_2 ZN,hourly; !- [J]
Output:Meter,General:InteriorEquipment:Electricity:Zone:IC_PATROOM3_MULT6_FLR_2 ZN,hourly; !- [J]
Output:Meter:Cumulative,General:InteriorEquipment:Electricity:Zone:IC_PATROOM3_MULT6_FLR_2 ZN,hourly; !- [J]
Output:Meter,InteriorEquipment:Electricity:Zone:KITCHEN_FLR_5 ZN,hourly; !- [J]
Output:Meter:Cumulative,InteriorEquipment:Electricity:Zone:KITCHEN_FLR_5 ZN,hourly; !- [J]
Output:Meter,General:InteriorEquipment:Electricity:Zone:KITCHEN_FLR_5 ZN,hourly; !- [J]
Output:Meter:Cumulative,General:InteriorEquipment:Electricity:Zone:KITCHEN_FLR_5 ZN,hourly; !- [J]
Output:Meter,InteriorEquipment:Electricity:Zone:LAB_FLR_3 ZN,hourly; !- [J]
Output:Meter:Cumulative,InteriorEquipment:Electricity:Zone:LAB_FLR_3 ZN,hourly; !- [J]
Output:Meter,General:InteriorEquipment:Electricity:Zone:LAB_FLR_3 ZN,hourly; !- [J]
Output:Meter:Cumulative,General:InteriorEquipment:Electricity:Zone:LAB_FLR_3 ZN,hourly; !- [J]
Output:Meter,InteriorEquipment:Electricity:Zone:LAB_FLR_4 ZN,hourly; !- [J]
Output:Meter:Cumulative,InteriorEquipment:Electricity:Zone:LAB_FLR_4 ZN,hourly; !- [J]
Output:Meter,General:InteriorEquipment:Electricity:Zone:LAB_FLR_4 ZN,hourly; !- [J]
Output:Meter:Cumulative,General:InteriorEquipment:Electricity:Zone:LAB_FLR_4 ZN,hourly; !- [J]
Output:Meter,InteriorEquipment:Electricity:Zone:LOBBY_RECORDS_FLR_1 ZN,hourly; !- [J]
Output:Meter:Cumulative,InteriorEquipment:Electricity:Zone:LOBBY_RECORDS_FLR_1 ZN,hourly; !- [J]
Output:Meter,General:InteriorEquipment:Electricity:Zone:LOBBY_RECORDS_FLR_1 ZN,hourly; !- [J]
Output:Meter:Cumulative,General:InteriorEquipment:Electricity:Zone:LOBBY_RECORDS_FLR_1 ZN,hourly; !- [J]
Output:Meter,InteriorEquipment:Electricity:Zone:NURSESTN_LOBBY_FLR_3 ZN,hourly; !- [J]
Output:Meter:Cumulative,InteriorEquipment:Electricity:Zone:NURSESTN_LOBBY_FLR_3 ZN,hourly; !- [J]
Output:Meter,General:InteriorEquipment:Electricity:Zone:NURSESTN_LOBBY_FLR_3 ZN,hourly; !- [J]
Output:Meter:Cumulative,General:InteriorEquipment:Electricity:Zone:NURSESTN_LOBBY_FLR_3 ZN,hourly; !- [J]
Output:Meter,InteriorEquipment:Electricity:Zone:NURSESTN_LOBBY_FLR_4 ZN,hourly; !- [J]
Output:Meter:Cumulative,InteriorEquipment:Electricity:Zone:NURSESTN_LOBBY_FLR_4 ZN,hourly; !- [J]
Output:Meter,General:InteriorEquipment:Electricity:Zone:NURSESTN_LOBBY_FLR_4 ZN,hourly; !- [J]
Output:Meter:Cumulative,General:InteriorEquipment:Electricity:Zone:NURSESTN_LOBBY_FLR_4 ZN,hourly; !- [J]
Output:Meter,InteriorEquipment:Electricity:Zone:NURSESTN_LOBBY_FLR_5 ZN,hourly; !- [J]
Output:Meter:Cumulative,InteriorEquipment:Electricity:Zone:NURSESTN_LOBBY_FLR_5 ZN,hourly; !- [J]
Output:Meter,General:InteriorEquipment:Electricity:Zone:NURSESTN_LOBBY_FLR_5 ZN,hourly; !- [J]
Output:Meter:Cumulative,General:InteriorEquipment:Electricity:Zone:NURSESTN_LOBBY_FLR_5 ZN,hourly; !- [J]
Output:Meter,InteriorEquipment:Electricity:Zone:OR_NURSESTN_LOBBY_FLR_2 ZN,hourly; !- [J]
Output:Meter:Cumulative,InteriorEquipment:Electricity:Zone:OR_NURSESTN_LOBBY_FLR_2 ZN,hourly; !- [J]
Output:Meter,General:InteriorEquipment:Electricity:Zone:OR_NURSESTN_LOBBY_FLR_2 ZN,hourly; !- [J]
Output:Meter:Cumulative,General:InteriorEquipment:Electricity:Zone:OR_NURSESTN_LOBBY_FLR_2 ZN,hourly; !- [J]
Output:Meter,InteriorEquipment:Electricity:Zone:OFFICE1_FLR_5 ZN,hourly; !- [J]
Output:Meter:Cumulative,InteriorEquipment:Electricity:Zone:OFFICE1_FLR_5 ZN,hourly; !- [J]
Output:Meter,General:InteriorEquipment:Electricity:Zone:OFFICE1_FLR_5 ZN,hourly; !- [J]
Output:Meter:Cumulative,General:InteriorEquipment:Electricity:Zone:OFFICE1_FLR_5 ZN,hourly; !- [J]
Output:Meter,InteriorEquipment:Electricity:Zone:OFFICE1_MULT4_FLR_1 ZN,hourly; !- [J]
Output:Meter:Cumulative,InteriorEquipment:Electricity:Zone:OFFICE1_MULT4_FLR_1 ZN,hourly; !- [J]
Output:Meter,General:InteriorEquipment:Electricity:Zone:OFFICE1_MULT4_FLR_1 ZN,hourly; !- [J]
Output:Meter:Cumulative,General:InteriorEquipment:Electricity:Zone:OFFICE1_MULT4_FLR_1 ZN,hourly; !- [J]
Output:Meter,InteriorEquipment:Electricity:Zone:OFFICE2_MULT5_FLR_5 ZN,hourly; !- [J]
Output:Meter:Cumulative,InteriorEquipment:Electricity:Zone:OFFICE2_MULT5_FLR_5 ZN,hourly; !- [J]
Output:Meter,General:InteriorEquipment:Electricity:Zone:OFFICE2_MULT5_FLR_5 ZN,hourly; !- [J]
Output:Meter:Cumulative,General:InteriorEquipment:Electricity:Zone:OFFICE2_MULT5_FLR_5 ZN,hourly; !- [J]
Output:Meter,InteriorEquipment:Electricity:Zone:OFFICE3_FLR_5 ZN,hourly; !- [J]
Output:Meter:Cumulative,InteriorEquipment:Electricity:Zone:OFFICE3_FLR_5 ZN,hourly; !- [J]
Output:Meter,General:InteriorEquipment:Electricity:Zone:OFFICE3_FLR_5 ZN,hourly; !- [J]
Output:Meter:Cumulative,General:InteriorEquipment:Electricity:Zone:OFFICE3_FLR_5 ZN,hourly; !- [J]
Output:Meter,InteriorEquipment:Electricity:Zone:OFFICE4_MULT6_FLR_5 ZN,hourly; !- [J]
Output:Meter:Cumulative,InteriorEquipment:Electricity:Zone:OFFICE4_MULT6_FLR_5 ZN,hourly; !- [J]
Output:Meter,General:InteriorEquipment:Electricity:Zone:OFFICE4_MULT6_FLR_5 ZN,hourly; !- [J]
Output:Meter:Cumulative,General:InteriorEquipment:Electricity:Zone:OFFICE4_MULT6_FLR_5 ZN,hourly; !- [J]
Output:Meter,InteriorEquipment:Electricity:Zone:OR1_FLR_2 ZN,hourly; !- [J]
Output:Meter:Cumulative,InteriorEquipment:Electricity:Zone:OR1_FLR_2 ZN,hourly; !- [J]
Output:Meter,General:InteriorEquipment:Electricity:Zone:OR1_FLR_2 ZN,hourly; !- [J]
Output:Meter:Cumulative,General:InteriorEquipment:Electricity:Zone:OR1_FLR_2 ZN,hourly; !- [J]
Output:Meter,InteriorEquipment:Electricity:Zone:OR2_MULT5_FLR_2 ZN,hourly; !- [J]
Output:Meter:Cumulative,InteriorEquipment:Electricity:Zone:OR2_MULT5_FLR_2 ZN,hourly; !- [J]
Output:Meter,General:InteriorEquipment:Electricity:Zone:OR2_MULT5_FLR_2 ZN,hourly; !- [J]
Output:Meter:Cumulative,General:InteriorEquipment:Electricity:Zone:OR2_MULT5_FLR_2 ZN,hourly; !- [J]
Output:Meter,InteriorEquipment:Electricity:Zone:OR3_FLR_2 ZN,hourly; !- [J]
Output:Meter:Cumulative,InteriorEquipment:Electricity:Zone:OR3_FLR_2 ZN,hourly; !- [J]
Output:Meter,General:InteriorEquipment:Electricity:Zone:OR3_FLR_2 ZN,hourly; !- [J]
Output:Meter:Cumulative,General:InteriorEquipment:Electricity:Zone:OR3_FLR_2 ZN,hourly; !- [J]
Output:Meter,InteriorEquipment:Electricity:Zone:OR4_FLR_2 ZN,hourly; !- [J]
Output:Meter:Cumulative,InteriorEquipment:Electricity:Zone:OR4_FLR_2 ZN,hourly; !- [J]
Output:Meter,General:InteriorEquipment:Electricity:Zone:OR4_FLR_2 ZN,hourly; !- [J]
Output:Meter:Cumulative,General:InteriorEquipment:Electricity:Zone:OR4_FLR_2 ZN,hourly; !- [J]
Output:Meter,InteriorEquipment:Electricity:Zone:PATROOM1_MULT10_FLR_3 ZN,hourly; !- [J]
Output:Meter:Cumulative,InteriorEquipment:Electricity:Zone:PATROOM1_MULT10_FLR_3 ZN,hourly; !- [J]
Output:Meter,General:InteriorEquipment:Electricity:Zone:PATROOM1_MULT10_FLR_3 ZN,hourly; !- [J]
Output:Meter:Cumulative,General:InteriorEquipment:Electricity:Zone:PATROOM1_MULT10_FLR_3 ZN,hourly; !- [J]
Output:Meter,InteriorEquipment:Electricity:Zone:PATROOM1_MULT10_FLR_4 ZN,hourly; !- [J]
Output:Meter:Cumulative,InteriorEquipment:Electricity:Zone:PATROOM1_MULT10_FLR_4 ZN,hourly; !- [J]
Output:Meter,General:InteriorEquipment:Electricity:Zone:PATROOM1_MULT10_FLR_4 ZN,hourly; !- [J]
Output:Meter:Cumulative,General:InteriorEquipment:Electricity:Zone:PATROOM1_MULT10_FLR_4 ZN,hourly; !- [J]
Output:Meter,InteriorEquipment:Electricity:Zone:PATROOM2_FLR_3 ZN,hourly; !- [J]
Output:Meter:Cumulative,InteriorEquipment:Electricity:Zone:PATROOM2_FLR_3 ZN,hourly; !- [J]
Output:Meter,General:InteriorEquipment:Electricity:Zone:PATROOM2_FLR_3 ZN,hourly; !- [J]
Output:Meter:Cumulative,General:InteriorEquipment:Electricity:Zone:PATROOM2_FLR_3 ZN,hourly; !- [J]
Output:Meter,InteriorEquipment:Electricity:Zone:PATROOM2_FLR_4 ZN,hourly; !- [J]
Output:Meter:Cumulative,InteriorEquipment:Electricity:Zone:PATROOM2_FLR_4 ZN,hourly; !- [J]
Output:Meter,General:InteriorEquipment:Electricity:Zone:PATROOM2_FLR_4 ZN,hourly; !- [J]
Output:Meter:Cumulative,General:InteriorEquipment:Electricity:Zone:PATROOM2_FLR_4 ZN,hourly; !- [J]
Output:Meter,InteriorEquipment:Electricity:Zone:PATROOM3_MULT10_FLR_3 ZN,hourly; !- [J]
Output:Meter:Cumulative,InteriorEquipment:Electricity:Zone:PATROOM3_MULT10_FLR_3 ZN,hourly; !- [J]
Output:Meter,General:InteriorEquipment:Electricity:Zone:PATROOM3_MULT10_FLR_3 ZN,hourly; !- [J]
Output:Meter:Cumulative,General:InteriorEquipment:Electricity:Zone:PATROOM3_MULT10_FLR_3 ZN,hourly; !- [J]
Output:Meter,InteriorEquipment:Electricity:Zone:PATROOM3_MULT10_FLR_4 ZN,hourly; !- [J]
Output:Meter:Cumulative,InteriorEquipment:Electricity:Zone:PATROOM3_MULT10_FLR_4 ZN,hourly; !- [J]
Output:Meter,General:InteriorEquipment:Electricity:Zone:PATROOM3_MULT10_FLR_4 ZN,hourly; !- [J]
Output:Meter:Cumulative,General:InteriorEquipment:Electricity:Zone:PATROOM3_MULT10_FLR_4 ZN,hourly; !- [J]
Output:Meter,InteriorEquipment:Electricity:Zone:PATROOM4_FLR_3 ZN,hourly; !- [J]
Output:Meter:Cumulative,InteriorEquipment:Electricity:Zone:PATROOM4_FLR_3 ZN,hourly; !- [J]
Output:Meter,General:InteriorEquipment:Electricity:Zone:PATROOM4_FLR_3 ZN,hourly; !- [J]
Output:Meter:Cumulative,General:InteriorEquipment:Electricity:Zone:PATROOM4_FLR_3 ZN,hourly; !- [J]
Output:Meter,InteriorEquipment:Electricity:Zone:PATROOM4_FLR_4 ZN,hourly; !- [J]
Output:Meter:Cumulative,InteriorEquipment:Electricity:Zone:PATROOM4_FLR_4 ZN,hourly; !- [J]
Output:Meter,General:InteriorEquipment:Electricity:Zone:PATROOM4_FLR_4 ZN,hourly; !- [J]
Output:Meter:Cumulative,General:InteriorEquipment:Electricity:Zone:PATROOM4_FLR_4 ZN,hourly; !- [J]
Output:Meter,InteriorEquipment:Electricity:Zone:PATROOM5_MULT10_FLR_3 ZN,hourly; !- [J]
Output:Meter:Cumulative,InteriorEquipment:Electricity:Zone:PATROOM5_MULT10_FLR_3 ZN,hourly; !- [J]
Output:Meter,General:InteriorEquipment:Electricity:Zone:PATROOM5_MULT10_FLR_3 ZN,hourly; !- [J]
Output:Meter:Cumulative,General:InteriorEquipment:Electricity:Zone:PATROOM5_MULT10_FLR_3 ZN,hourly; !- [J]
Output:Meter,InteriorEquipment:Electricity:Zone:PATROOM5_MULT10_FLR_4 ZN,hourly; !- [J]
Output:Meter:Cumulative,InteriorEquipment:Electricity:Zone:PATROOM5_MULT10_FLR_4 ZN,hourly; !- [J]
Output:Meter,General:InteriorEquipment:Electricity:Zone:PATROOM5_MULT10_FLR_4 ZN,hourly; !- [J]
Output:Meter:Cumulative,General:InteriorEquipment:Electricity:Zone:PATROOM5_MULT10_FLR_4 ZN,hourly; !- [J]
Output:Meter,InteriorEquipment:Electricity:Zone:PATROOM6_FLR_3 ZN,hourly; !- [J]
Output:Meter:Cumulative,InteriorEquipment:Electricity:Zone:PATROOM6_FLR_3 ZN,hourly; !- [J]
Output:Meter,General:InteriorEquipment:Electricity:Zone:PATROOM6_FLR_3 ZN,hourly; !- [J]
Output:Meter:Cumulative,General:InteriorEquipment:Electricity:Zone:PATROOM6_FLR_3 ZN,hourly; !- [J]
Output:Meter,InteriorEquipment:Electricity:Zone:PATROOM6_FLR_4 ZN,hourly; !- [J]
Output:Meter:Cumulative,InteriorEquipment:Electricity:Zone:PATROOM6_FLR_4 ZN,hourly; !- [J]
Output:Meter,General:InteriorEquipment:Electricity:Zone:PATROOM6_FLR_4 ZN,hourly; !- [J]
Output:Meter:Cumulative,General:InteriorEquipment:Electricity:Zone:PATROOM6_FLR_4 ZN,hourly; !- [J]
Output:Meter,InteriorEquipment:Electricity:Zone:PATROOM7_MULT10_FLR_3 ZN,hourly; !- [J]
Output:Meter:Cumulative,InteriorEquipment:Electricity:Zone:PATROOM7_MULT10_FLR_3 ZN,hourly; !- [J]
Output:Meter,General:InteriorEquipment:Electricity:Zone:PATROOM7_MULT10_FLR_3 ZN,hourly; !- [J]
Output:Meter:Cumulative,General:InteriorEquipment:Electricity:Zone:PATROOM7_MULT10_FLR_3 ZN,hourly; !- [J]
Output:Meter,InteriorEquipment:Electricity:Zone:PATROOM7_MULT10_FLR_4 ZN,hourly; !- [J]
Output:Meter:Cumulative,InteriorEquipment:Electricity:Zone:PATROOM7_MULT10_FLR_4 ZN,hourly; !- [J]
Output:Meter,General:InteriorEquipment:Electricity:Zone:PATROOM7_MULT10_FLR_4 ZN,hourly; !- [J]
Output:Meter:Cumulative,General:InteriorEquipment:Electricity:Zone:PATROOM7_MULT10_FLR_4 ZN,hourly; !- [J]
Output:Meter,InteriorEquipment:Electricity:Zone:PATROOM8_FLR_3 ZN,hourly; !- [J]
Output:Meter:Cumulative,InteriorEquipment:Electricity:Zone:PATROOM8_FLR_3 ZN,hourly; !- [J]
Output:Meter,General:InteriorEquipment:Electricity:Zone:PATROOM8_FLR_3 ZN,hourly; !- [J]
Output:Meter:Cumulative,General:InteriorEquipment:Electricity:Zone:PATROOM8_FLR_3 ZN,hourly; !- [J]
Output:Meter,InteriorEquipment:Electricity:Zone:PATROOM8_FLR_4 ZN,hourly; !- [J]
Output:Meter:Cumulative,InteriorEquipment:Electricity:Zone:PATROOM8_FLR_4 ZN,hourly; !- [J]
Output:Meter,General:InteriorEquipment:Electricity:Zone:PATROOM8_FLR_4 ZN,hourly; !- [J]
Output:Meter:Cumulative,General:InteriorEquipment:Electricity:Zone:PATROOM8_FLR_4 ZN,hourly; !- [J]
Output:Meter,InteriorEquipment:Electricity:Zone:PHYSTHERAPY_FLR_3 ZN,hourly; !- [J]
Output:Meter:Cumulative,InteriorEquipment:Electricity:Zone:PHYSTHERAPY_FLR_3 ZN,hourly; !- [J]
Output:Meter,General:InteriorEquipment:Electricity:Zone:PHYSTHERAPY_FLR_3 ZN,hourly; !- [J]
Output:Meter:Cumulative,General:InteriorEquipment:Electricity:Zone:PHYSTHERAPY_FLR_3 ZN,hourly; !- [J]
Output:Meter,InteriorEquipment:Electricity:Zone:RADIOLOGY_FLR_4 ZN,hourly; !- [J]
Output:Meter:Cumulative,InteriorEquipment:Electricity:Zone:RADIOLOGY_FLR_4 ZN,hourly; !- [J]
Output:Meter,General:InteriorEquipment:Electricity:Zone:RADIOLOGY_FLR_4 ZN,hourly; !- [J]
Output:Meter:Cumulative,General:InteriorEquipment:Electricity:Zone:RADIOLOGY_FLR_4 ZN,hourly; !- [J]
Output:Meter,NaturalGas:Facility,hourly; !- [J]
Output:Meter:Cumulative,NaturalGas:Facility,hourly; !- [J]
Output:Meter,NaturalGas:Building,hourly; !- [J]
Output:Meter:Cumulative,NaturalGas:Building,hourly; !- [J]
Output:Meter,NaturalGas:Zone:KITCHEN_FLR_5 ZN,hourly; !- [J]
Output:Meter:Cumulative,NaturalGas:Zone:KITCHEN_FLR_5 ZN,hourly; !- [J]
Output:Meter,NaturalGas:SpaceType:GENERAL,hourly; !- [J]
Output:Meter:Cumulative,NaturalGas:SpaceType:GENERAL,hourly; !- [J]
Output:Meter,InteriorEquipment:NaturalGas,hourly; !- [J]
Output:Meter:Cumulative,InteriorEquipment:NaturalGas,hourly; !- [J]
Output:Meter,InteriorEquipment:NaturalGas:Zone:KITCHEN_FLR_5 ZN,hourly; !- [J]
Output:Meter:Cumulative,InteriorEquipment:NaturalGas:Zone:KITCHEN_FLR_5 ZN,hourly; !- [J]
Output:Meter,InteriorEquipment:NaturalGas:SpaceType:GENERAL,hourly; !- [J]
Output:Meter:Cumulative,InteriorEquipment:NaturalGas:SpaceType:GENERAL,hourly; !- [J]
Output:Meter,General:InteriorEquipment:NaturalGas,hourly; !- [J]
Output:Meter:Cumulative,General:InteriorEquipment:NaturalGas,hourly; !- [J]
Output:Meter,General:InteriorEquipment:NaturalGas:Zone:KITCHEN_FLR_5 ZN,hourly; !- [J]
Output:Meter:Cumulative,General:InteriorEquipment:NaturalGas:Zone:KITCHEN_FLR_5 ZN,hourly; !- [J]
Output:Meter,General:InteriorEquipment:NaturalGas:SpaceType:GENERAL,hourly; !- [J]
Output:Meter:Cumulative,General:InteriorEquipment:NaturalGas:SpaceType:GENERAL,hourly; !- [J]
Output:Meter,EnergyTransfer:Facility,hourly; !- [J]
Output:Meter:Cumulative,EnergyTransfer:Facility,hourly; !- [J]
Output:Meter,EnergyTransfer:Building,hourly; !- [J]
Output:Meter:Cumulative,EnergyTransfer:Building,hourly; !- [J]
Output:Meter,EnergyTransfer:Zone:KITCHEN_FLR_5 ZN,hourly; !- [J]
Output:Meter:Cumulative,EnergyTransfer:Zone:KITCHEN_FLR_5 ZN,hourly; !- [J]
Output:Meter,Refrigeration:EnergyTransfer,hourly; !- [J]
Output:Meter:Cumulative,Refrigeration:EnergyTransfer,hourly; !- [J]
Output:Meter,Refrigeration:EnergyTransfer:Zone:KITCHEN_FLR_5 ZN,hourly; !- [J]
Output:Meter:Cumulative,Refrigeration:EnergyTransfer:Zone:KITCHEN_FLR_5 ZN,hourly; !- [J]
Output:Meter,General:Refrigeration:EnergyTransfer,hourly; !- [J]
Output:Meter:Cumulative,General:Refrigeration:EnergyTransfer,hourly; !- [J]
Output:Meter,General:Refrigeration:EnergyTransfer:Zone:KITCHEN_FLR_5 ZN,hourly; !- [J]
Output:Meter:Cumulative,General:Refrigeration:EnergyTransfer:Zone:KITCHEN_FLR_5 ZN,hourly; !- [J]
Output:Meter,Refrigeration:Electricity,hourly; !- [J]
Output:Meter:Cumulative,Refrigeration:Electricity,hourly; !- [J]
Output:Meter,Refrigeration:Electricity:Zone:KITCHEN_FLR_5 ZN,hourly; !- [J]
Output:Meter:Cumulative,Refrigeration:Electricity:Zone:KITCHEN_FLR_5 ZN,hourly; !- [J]
Output:Meter,General:Refrigeration:Electricity,hourly; !- [J]
Output:Meter:Cumulative,General:Refrigeration:Electricity,hourly; !- [J]
Output:Meter,General:Refrigeration:Electricity:Zone:KITCHEN_FLR_5 ZN,hourly; !- [J]
Output:Meter:Cumulative,General:Refrigeration:Electricity:Zone:KITCHEN_FLR_5 ZN,hourly; !- [J]
Output:Meter,Electricity:Plant,hourly; !- [J]
Output:Meter:Cumulative,Electricity:Plant,hourly; !- [J]
Output:Meter,EnergyTransfer:Zone:BASEMENT ZN,hourly; !- [J]
Output:Meter:Cumulative,EnergyTransfer:Zone:BASEMENT ZN,hourly; !- [J]
Output:Meter,Heating:EnergyTransfer,hourly; !- [J]
Output:Meter:Cumulative,Heating:EnergyTransfer,hourly; !- [J]
Output:Meter,Heating:EnergyTransfer:Zone:BASEMENT ZN,hourly; !- [J]
Output:Meter:Cumulative,Heating:EnergyTransfer:Zone:BASEMENT ZN,hourly; !- [J]
Output:Meter,General:Heating:EnergyTransfer,hourly; !- [J]
Output:Meter:Cumulative,General:Heating:EnergyTransfer,hourly; !- [J]
Output:Meter,General:Heating:EnergyTransfer:Zone:BASEMENT ZN,hourly; !- [J]
Output:Meter:Cumulative,General:Heating:EnergyTransfer:Zone:BASEMENT ZN,hourly; !- [J]
Output:Meter,Cooling:EnergyTransfer,hourly; !- [J]
Output:Meter:Cumulative,Cooling:EnergyTransfer,hourly; !- [J]
Output:Meter,Cooling:EnergyTransfer:Zone:BASEMENT ZN,hourly; !- [J]
Output:Meter:Cumulative,Cooling:EnergyTransfer:Zone:BASEMENT ZN,hourly; !- [J]
Output:Meter,General:Cooling:EnergyTransfer,hourly; !- [J]
Output:Meter:Cumulative,General:Cooling:EnergyTransfer,hourly; !- [J]
Output:Meter,General:Cooling:EnergyTransfer:Zone:BASEMENT ZN,hourly; !- [J]
Output:Meter:Cumulative,General:Cooling:EnergyTransfer:Zone:BASEMENT ZN,hourly; !- [J]
Output:Meter,EnergyTransfer:Zone:CORRIDOR_FLR_1 ZN,hourly; !- [J]
Output:Meter:Cumulative,EnergyTransfer:Zone:CORRIDOR_FLR_1 ZN,hourly; !- [J]
Output:Meter,Heating:EnergyTransfer:Zone:CORRIDOR_FLR_1 ZN,hourly; !- [J]
Output:Meter:Cumulative,Heating:EnergyTransfer:Zone:CORRIDOR_FLR_1 ZN,hourly; !- [J]
Output:Meter,General:Heating:EnergyTransfer:Zone:CORRIDOR_FLR_1 ZN,hourly; !- [J]
Output:Meter:Cumulative,General:Heating:EnergyTransfer:Zone:CORRIDOR_FLR_1 ZN,hourly; !- [J]
Output:Meter,Cooling:EnergyTransfer:Zone:CORRIDOR_FLR_1 ZN,hourly; !- [J]
Output:Meter:Cumulative,Cooling:EnergyTransfer:Zone:CORRIDOR_FLR_1 ZN,hourly; !- [J]
Output:Meter,General:Cooling:EnergyTransfer:Zone:CORRIDOR_FLR_1 ZN,hourly; !- [J]
Output:Meter:Cumulative,General:Cooling:EnergyTransfer:Zone:CORRIDOR_FLR_1 ZN,hourly; !- [J]
Output:Meter,EnergyTransfer:Zone:CORRIDOR_FLR_2 ZN,hourly; !- [J]
Output:Meter:Cumulative,EnergyTransfer:Zone:CORRIDOR_FLR_2 ZN,hourly; !- [J]
Output:Meter,Heating:EnergyTransfer:Zone:CORRIDOR_FLR_2 ZN,hourly; !- [J]
Output:Meter:Cumulative,Heating:EnergyTransfer:Zone:CORRIDOR_FLR_2 ZN,hourly; !- [J]
Output:Meter,General:Heating:EnergyTransfer:Zone:CORRIDOR_FLR_2 ZN,hourly; !- [J]
Output:Meter:Cumulative,General:Heating:EnergyTransfer:Zone:CORRIDOR_FLR_2 ZN,hourly; !- [J]
Output:Meter,Cooling:EnergyTransfer:Zone:CORRIDOR_FLR_2 ZN,hourly; !- [J]
Output:Meter:Cumulative,Cooling:EnergyTransfer:Zone:CORRIDOR_FLR_2 ZN,hourly; !- [J]
Output:Meter,General:Cooling:EnergyTransfer:Zone:CORRIDOR_FLR_2 ZN,hourly; !- [J]
Output:Meter:Cumulative,General:Cooling:EnergyTransfer:Zone:CORRIDOR_FLR_2 ZN,hourly; !- [J]
Output:Meter,EnergyTransfer:Zone:CORRIDOR_FLR_5 ZN,hourly; !- [J]
Output:Meter:Cumulative,EnergyTransfer:Zone:CORRIDOR_FLR_5 ZN,hourly; !- [J]
Output:Meter,Heating:EnergyTransfer:Zone:CORRIDOR_FLR_5 ZN,hourly; !- [J]
Output:Meter:Cumulative,Heating:EnergyTransfer:Zone:CORRIDOR_FLR_5 ZN,hourly; !- [J]
Output:Meter,General:Heating:EnergyTransfer:Zone:CORRIDOR_FLR_5 ZN,hourly; !- [J]
Output:Meter:Cumulative,General:Heating:EnergyTransfer:Zone:CORRIDOR_FLR_5 ZN,hourly; !- [J]
Output:Meter,Cooling:EnergyTransfer:Zone:CORRIDOR_FLR_5 ZN,hourly; !- [J]
Output:Meter:Cumulative,Cooling:EnergyTransfer:Zone:CORRIDOR_FLR_5 ZN,hourly; !- [J]
Output:Meter,General:Cooling:EnergyTransfer:Zone:CORRIDOR_FLR_5 ZN,hourly; !- [J]
Output:Meter:Cumulative,General:Cooling:EnergyTransfer:Zone:CORRIDOR_FLR_5 ZN,hourly; !- [J]
Output:Meter,EnergyTransfer:Zone:CORRIDOR_NW_FLR_3 ZN,hourly; !- [J]
Output:Meter:Cumulative,EnergyTransfer:Zone:CORRIDOR_NW_FLR_3 ZN,hourly; !- [J]
Output:Meter,Heating:EnergyTransfer:Zone:CORRIDOR_NW_FLR_3 ZN,hourly; !- [J]
Output:Meter:Cumulative,Heating:EnergyTransfer:Zone:CORRIDOR_NW_FLR_3 ZN,hourly; !- [J]
Output:Meter,General:Heating:EnergyTransfer:Zone:CORRIDOR_NW_FLR_3 ZN,hourly; !- [J]
Output:Meter:Cumulative,General:Heating:EnergyTransfer:Zone:CORRIDOR_NW_FLR_3 ZN,hourly; !- [J]
Output:Meter,Cooling:EnergyTransfer:Zone:CORRIDOR_NW_FLR_3 ZN,hourly; !- [J]
Output:Meter:Cumulative,Cooling:EnergyTransfer:Zone:CORRIDOR_NW_FLR_3 ZN,hourly; !- [J]
Output:Meter,General:Cooling:EnergyTransfer:Zone:CORRIDOR_NW_FLR_3 ZN,hourly; !- [J]
Output:Meter:Cumulative,General:Cooling:EnergyTransfer:Zone:CORRIDOR_NW_FLR_3 ZN,hourly; !- [J]
Output:Meter,EnergyTransfer:Zone:CORRIDOR_NW_FLR_4 ZN,hourly; !- [J]
Output:Meter:Cumulative,EnergyTransfer:Zone:CORRIDOR_NW_FLR_4 ZN,hourly; !- [J]
Output:Meter,Heating:EnergyTransfer:Zone:CORRIDOR_NW_FLR_4 ZN,hourly; !- [J]
Output:Meter:Cumulative,Heating:EnergyTransfer:Zone:CORRIDOR_NW_FLR_4 ZN,hourly; !- [J]
Output:Meter,General:Heating:EnergyTransfer:Zone:CORRIDOR_NW_FLR_4 ZN,hourly; !- [J]
Output:Meter:Cumulative,General:Heating:EnergyTransfer:Zone:CORRIDOR_NW_FLR_4 ZN,hourly; !- [J]
Output:Meter,Cooling:EnergyTransfer:Zone:CORRIDOR_NW_FLR_4 ZN,hourly; !- [J]
Output:Meter:Cumulative,Cooling:EnergyTransfer:Zone:CORRIDOR_NW_FLR_4 ZN,hourly; !- [J]
Output:Meter,General:Cooling:EnergyTransfer:Zone:CORRIDOR_NW_FLR_4 ZN,hourly; !- [J]
Output:Meter:Cumulative,General:Cooling:EnergyTransfer:Zone:CORRIDOR_NW_FLR_4 ZN,hourly; !- [J]
Output:Meter,EnergyTransfer:Zone:CORRIDOR_SE_FLR_3 ZN,hourly; !- [J]
Output:Meter:Cumulative,EnergyTransfer:Zone:CORRIDOR_SE_FLR_3 ZN,hourly; !- [J]
Output:Meter,Heating:EnergyTransfer:Zone:CORRIDOR_SE_FLR_3 ZN,hourly; !- [J]
Output:Meter:Cumulative,Heating:EnergyTransfer:Zone:CORRIDOR_SE_FLR_3 ZN,hourly; !- [J]
Output:Meter,General:Heating:EnergyTransfer:Zone:CORRIDOR_SE_FLR_3 ZN,hourly; !- [J]
Output:Meter:Cumulative,General:Heating:EnergyTransfer:Zone:CORRIDOR_SE_FLR_3 ZN,hourly; !- [J]
Output:Meter,Cooling:EnergyTransfer:Zone:CORRIDOR_SE_FLR_3 ZN,hourly; !- [J]
Output:Meter:Cumulative,Cooling:EnergyTransfer:Zone:CORRIDOR_SE_FLR_3 ZN,hourly; !- [J]
Output:Meter,General:Cooling:EnergyTransfer:Zone:CORRIDOR_SE_FLR_3 ZN,hourly; !- [J]
Output:Meter:Cumulative,General:Cooling:EnergyTransfer:Zone:CORRIDOR_SE_FLR_3 ZN,hourly; !- [J]
Output:Meter,EnergyTransfer:Zone:CORRIDOR_SE_FLR_4 ZN,hourly; !- [J]
Output:Meter:Cumulative,EnergyTransfer:Zone:CORRIDOR_SE_FLR_4 ZN,hourly; !- [J]
Output:Meter,Heating:EnergyTransfer:Zone:CORRIDOR_SE_FLR_4 ZN,hourly; !- [J]
Output:Meter:Cumulative,Heating:EnergyTransfer:Zone:CORRIDOR_SE_FLR_4 ZN,hourly; !- [J]
Output:Meter,General:Heating:EnergyTransfer:Zone:CORRIDOR_SE_FLR_4 ZN,hourly; !- [J]
Output:Meter:Cumulative,General:Heating:EnergyTransfer:Zone:CORRIDOR_SE_FLR_4 ZN,hourly; !- [J]
Output:Meter,Cooling:EnergyTransfer:Zone:CORRIDOR_SE_FLR_4 ZN,hourly; !- [J]
Output:Meter:Cumulative,Cooling:EnergyTransfer:Zone:CORRIDOR_SE_FLR_4 ZN,hourly; !- [J]
Output:Meter,General:Cooling:EnergyTransfer:Zone:CORRIDOR_SE_FLR_4 ZN,hourly; !- [J]
Output:Meter:Cumulative,General:Cooling:EnergyTransfer:Zone:CORRIDOR_SE_FLR_4 ZN,hourly; !- [J]
Output:Meter,EnergyTransfer:Zone:DINING_FLR_5 ZN,hourly; !- [J]
Output:Meter:Cumulative,EnergyTransfer:Zone:DINING_FLR_5 ZN,hourly; !- [J]
Output:Meter,Heating:EnergyTransfer:Zone:DINING_FLR_5 ZN,hourly; !- [J]
Output:Meter:Cumulative,Heating:EnergyTransfer:Zone:DINING_FLR_5 ZN,hourly; !- [J]
Output:Meter,General:Heating:EnergyTransfer:Zone:DINING_FLR_5 ZN,hourly; !- [J]
Output:Meter:Cumulative,General:Heating:EnergyTransfer:Zone:DINING_FLR_5 ZN,hourly; !- [J]
Output:Meter,Cooling:EnergyTransfer:Zone:DINING_FLR_5 ZN,hourly; !- [J]
Output:Meter:Cumulative,Cooling:EnergyTransfer:Zone:DINING_FLR_5 ZN,hourly; !- [J]
Output:Meter,General:Cooling:EnergyTransfer:Zone:DINING_FLR_5 ZN,hourly; !- [J]
Output:Meter:Cumulative,General:Cooling:EnergyTransfer:Zone:DINING_FLR_5 ZN,hourly; !- [J]
Output:Meter,EnergyTransfer:Zone:ER_EXAM1_MULT4_FLR_1 ZN,hourly; !- [J]
Output:Meter:Cumulative,EnergyTransfer:Zone:ER_EXAM1_MULT4_FLR_1 ZN,hourly; !- [J]
Output:Meter,Heating:EnergyTransfer:Zone:ER_EXAM1_MULT4_FLR_1 ZN,hourly; !- [J]
Output:Meter:Cumulative,Heating:EnergyTransfer:Zone:ER_EXAM1_MULT4_FLR_1 ZN,hourly; !- [J]
Output:Meter,General:Heating:EnergyTransfer:Zone:ER_EXAM1_MULT4_FLR_1 ZN,hourly; !- [J]
Output:Meter:Cumulative,General:Heating:EnergyTransfer:Zone:ER_EXAM1_MULT4_FLR_1 ZN,hourly; !- [J]
Output:Meter,Cooling:EnergyTransfer:Zone:ER_EXAM1_MULT4_FLR_1 ZN,hourly; !- [J]
Output:Meter:Cumulative,Cooling:EnergyTransfer:Zone:ER_EXAM1_MULT4_FLR_1 ZN,hourly; !- [J]
Output:Meter,General:Cooling:EnergyTransfer:Zone:ER_EXAM1_MULT4_FLR_1 ZN,hourly; !- [J]
Output:Meter:Cumulative,General:Cooling:EnergyTransfer:Zone:ER_EXAM1_MULT4_FLR_1 ZN,hourly; !- [J]
Output:Meter,EnergyTransfer:Zone:ER_EXAM3_MULT4_FLR_1 ZN,hourly; !- [J]
Output:Meter:Cumulative,EnergyTransfer:Zone:ER_EXAM3_MULT4_FLR_1 ZN,hourly; !- [J]
Output:Meter,Heating:EnergyTransfer:Zone:ER_EXAM3_MULT4_FLR_1 ZN,hourly; !- [J]
Output:Meter:Cumulative,Heating:EnergyTransfer:Zone:ER_EXAM3_MULT4_FLR_1 ZN,hourly; !- [J]
Output:Meter,General:Heating:EnergyTransfer:Zone:ER_EXAM3_MULT4_FLR_1 ZN,hourly; !- [J]
Output:Meter:Cumulative,General:Heating:EnergyTransfer:Zone:ER_EXAM3_MULT4_FLR_1 ZN,hourly; !- [J]
Output:Meter,Cooling:EnergyTransfer:Zone:ER_EXAM3_MULT4_FLR_1 ZN,hourly; !- [J]
Output:Meter:Cumulative,Cooling:EnergyTransfer:Zone:ER_EXAM3_MULT4_FLR_1 ZN,hourly; !- [J]
Output:Meter,General:Cooling:EnergyTransfer:Zone:ER_EXAM3_MULT4_FLR_1 ZN,hourly; !- [J]
Output:Meter:Cumulative,General:Cooling:EnergyTransfer:Zone:ER_EXAM3_MULT4_FLR_1 ZN,hourly; !- [J]
Output:Meter,EnergyTransfer:Zone:ER_NURSESTN_LOBBY_FLR_1 ZN,hourly; !- [J]
Output:Meter:Cumulative,EnergyTransfer:Zone:ER_NURSESTN_LOBBY_FLR_1 ZN,hourly; !- [J]
Output:Meter,Heating:EnergyTransfer:Zone:ER_NURSESTN_LOBBY_FLR_1 ZN,hourly; !- [J]
Output:Meter:Cumulative,Heating:EnergyTransfer:Zone:ER_NURSESTN_LOBBY_FLR_1 ZN,hourly; !- [J]
Output:Meter,General:Heating:EnergyTransfer:Zone:ER_NURSESTN_LOBBY_FLR_1 ZN,hourly; !- [J]
Output:Meter:Cumulative,General:Heating:EnergyTransfer:Zone:ER_NURSESTN_LOBBY_FLR_1 ZN,hourly; !- [J]
Output:Meter,Cooling:EnergyTransfer:Zone:ER_NURSESTN_LOBBY_FLR_1 ZN,hourly; !- [J]
Output:Meter:Cumulative,Cooling:EnergyTransfer:Zone:ER_NURSESTN_LOBBY_FLR_1 ZN,hourly; !- [J]
Output:Meter,General:Cooling:EnergyTransfer:Zone:ER_NURSESTN_LOBBY_FLR_1 ZN,hourly; !- [J]
Output:Meter:Cumulative,General:Cooling:EnergyTransfer:Zone:ER_NURSESTN_LOBBY_FLR_1 ZN,hourly; !- [J]
Output:Meter,EnergyTransfer:Zone:ER_TRAUMA1_FLR_1 ZN,hourly; !- [J]
Output:Meter:Cumulative,EnergyTransfer:Zone:ER_TRAUMA1_FLR_1 ZN,hourly; !- [J]
Output:Meter,Heating:EnergyTransfer:Zone:ER_TRAUMA1_FLR_1 ZN,hourly; !- [J]
Output:Meter:Cumulative,Heating:EnergyTransfer:Zone:ER_TRAUMA1_FLR_1 ZN,hourly; !- [J]
Output:Meter,General:Heating:EnergyTransfer:Zone:ER_TRAUMA1_FLR_1 ZN,hourly; !- [J]
Output:Meter:Cumulative,General:Heating:EnergyTransfer:Zone:ER_TRAUMA1_FLR_1 ZN,hourly; !- [J]
Output:Meter,Cooling:EnergyTransfer:Zone:ER_TRAUMA1_FLR_1 ZN,hourly; !- [J]
Output:Meter:Cumulative,Cooling:EnergyTransfer:Zone:ER_TRAUMA1_FLR_1 ZN,hourly; !- [J]
Output:Meter,General:Cooling:EnergyTransfer:Zone:ER_TRAUMA1_FLR_1 ZN,hourly; !- [J]
Output:Meter:Cumulative,General:Cooling:EnergyTransfer:Zone:ER_TRAUMA1_FLR_1 ZN,hourly; !- [J]
Output:Meter,EnergyTransfer:Zone:ER_TRAUMA2_FLR_1 ZN,hourly; !- [J]
Output:Meter:Cumulative,EnergyTransfer:Zone:ER_TRAUMA2_FLR_1 ZN,hourly; !- [J]
Output:Meter,Heating:EnergyTransfer:Zone:ER_TRAUMA2_FLR_1 ZN,hourly; !- [J]
Output:Meter:Cumulative,Heating:EnergyTransfer:Zone:ER_TRAUMA2_FLR_1 ZN,hourly; !- [J]
Output:Meter,General:Heating:EnergyTransfer:Zone:ER_TRAUMA2_FLR_1 ZN,hourly; !- [J]
Output:Meter:Cumulative,General:Heating:EnergyTransfer:Zone:ER_TRAUMA2_FLR_1 ZN,hourly; !- [J]
Output:Meter,Cooling:EnergyTransfer:Zone:ER_TRAUMA2_FLR_1 ZN,hourly; !- [J]
Output:Meter:Cumulative,Cooling:EnergyTransfer:Zone:ER_TRAUMA2_FLR_1 ZN,hourly; !- [J]
Output:Meter,General:Cooling:EnergyTransfer:Zone:ER_TRAUMA2_FLR_1 ZN,hourly; !- [J]
Output:Meter:Cumulative,General:Cooling:EnergyTransfer:Zone:ER_TRAUMA2_FLR_1 ZN,hourly; !- [J]
Output:Meter,EnergyTransfer:Zone:ER_TRIAGE_MULT4_FLR_1 ZN,hourly; !- [J]
Output:Meter:Cumulative,EnergyTransfer:Zone:ER_TRIAGE_MULT4_FLR_1 ZN,hourly; !- [J]
Output:Meter,Heating:EnergyTransfer:Zone:ER_TRIAGE_MULT4_FLR_1 ZN,hourly; !- [J]
Output:Meter:Cumulative,Heating:EnergyTransfer:Zone:ER_TRIAGE_MULT4_FLR_1 ZN,hourly; !- [J]
Output:Meter,General:Heating:EnergyTransfer:Zone:ER_TRIAGE_MULT4_FLR_1 ZN,hourly; !- [J]
Output:Meter:Cumulative,General:Heating:EnergyTransfer:Zone:ER_TRIAGE_MULT4_FLR_1 ZN,hourly; !- [J]
Output:Meter,Cooling:EnergyTransfer:Zone:ER_TRIAGE_MULT4_FLR_1 ZN,hourly; !- [J]
Output:Meter:Cumulative,Cooling:EnergyTransfer:Zone:ER_TRIAGE_MULT4_FLR_1 ZN,hourly; !- [J]
Output:Meter,General:Cooling:EnergyTransfer:Zone:ER_TRIAGE_MULT4_FLR_1 ZN,hourly; !- [J]
Output:Meter:Cumulative,General:Cooling:EnergyTransfer:Zone:ER_TRIAGE_MULT4_FLR_1 ZN,hourly; !- [J]
Output:Meter,EnergyTransfer:Zone:ICU_FLR_2 ZN,hourly; !- [J]
Output:Meter:Cumulative,EnergyTransfer:Zone:ICU_FLR_2 ZN,hourly; !- [J]
Output:Meter,Heating:EnergyTransfer:Zone:ICU_FLR_2 ZN,hourly; !- [J]
Output:Meter:Cumulative,Heating:EnergyTransfer:Zone:ICU_FLR_2 ZN,hourly; !- [J]
Output:Meter,General:Heating:EnergyTransfer:Zone:ICU_FLR_2 ZN,hourly; !- [J]
Output:Meter:Cumulative,General:Heating:EnergyTransfer:Zone:ICU_FLR_2 ZN,hourly; !- [J]
Output:Meter,Cooling:EnergyTransfer:Zone:ICU_FLR_2 ZN,hourly; !- [J]
Output:Meter:Cumulative,Cooling:EnergyTransfer:Zone:ICU_FLR_2 ZN,hourly; !- [J]
Output:Meter,General:Cooling:EnergyTransfer:Zone:ICU_FLR_2 ZN,hourly; !- [J]
Output:Meter:Cumulative,General:Cooling:EnergyTransfer:Zone:ICU_FLR_2 ZN,hourly; !- [J]
Output:Meter,EnergyTransfer:Zone:ICU_NURSESTN_LOBBY_FLR_2 ZN,hourly; !- [J]
Output:Meter:Cumulative,EnergyTransfer:Zone:ICU_NURSESTN_LOBBY_FLR_2 ZN,hourly; !- [J]
Output:Meter,Heating:EnergyTransfer:Zone:ICU_NURSESTN_LOBBY_FLR_2 ZN,hourly; !- [J]
Output:Meter:Cumulative,Heating:EnergyTransfer:Zone:ICU_NURSESTN_LOBBY_FLR_2 ZN,hourly; !- [J]
Output:Meter,General:Heating:EnergyTransfer:Zone:ICU_NURSESTN_LOBBY_FLR_2 ZN,hourly; !- [J]
Output:Meter:Cumulative,General:Heating:EnergyTransfer:Zone:ICU_NURSESTN_LOBBY_FLR_2 ZN,hourly; !- [J]
Output:Meter,Cooling:EnergyTransfer:Zone:ICU_NURSESTN_LOBBY_FLR_2 ZN,hourly; !- [J]
Output:Meter:Cumulative,Cooling:EnergyTransfer:Zone:ICU_NURSESTN_LOBBY_FLR_2 ZN,hourly; !- [J]
Output:Meter,General:Cooling:EnergyTransfer:Zone:ICU_NURSESTN_LOBBY_FLR_2 ZN,hourly; !- [J]
Output:Meter:Cumulative,General:Cooling:EnergyTransfer:Zone:ICU_NURSESTN_LOBBY_FLR_2 ZN,hourly; !- [J]
Output:Meter,EnergyTransfer:Zone:IC_PATROOM1_MULT5_FLR_2 ZN,hourly; !- [J]
Output:Meter:Cumulative,EnergyTransfer:Zone:IC_PATROOM1_MULT5_FLR_2 ZN,hourly; !- [J]
Output:Meter,Heating:EnergyTransfer:Zone:IC_PATROOM1_MULT5_FLR_2 ZN,hourly; !- [J]
Output:Meter:Cumulative,Heating:EnergyTransfer:Zone:IC_PATROOM1_MULT5_FLR_2 ZN,hourly; !- [J]
Output:Meter,General:Heating:EnergyTransfer:Zone:IC_PATROOM1_MULT5_FLR_2 ZN,hourly; !- [J]
Output:Meter:Cumulative,General:Heating:EnergyTransfer:Zone:IC_PATROOM1_MULT5_FLR_2 ZN,hourly; !- [J]
Output:Meter,Cooling:EnergyTransfer:Zone:IC_PATROOM1_MULT5_FLR_2 ZN,hourly; !- [J]
Output:Meter:Cumulative,Cooling:EnergyTransfer:Zone:IC_PATROOM1_MULT5_FLR_2 ZN,hourly; !- [J]
Output:Meter,General:Cooling:EnergyTransfer:Zone:IC_PATROOM1_MULT5_FLR_2 ZN,hourly; !- [J]
Output:Meter:Cumulative,General:Cooling:EnergyTransfer:Zone:IC_PATROOM1_MULT5_FLR_2 ZN,hourly; !- [J]
Output:Meter,EnergyTransfer:Zone:IC_PATROOM2_FLR_2 ZN,hourly; !- [J]
Output:Meter:Cumulative,EnergyTransfer:Zone:IC_PATROOM2_FLR_2 ZN,hourly; !- [J]
Output:Meter,Heating:EnergyTransfer:Zone:IC_PATROOM2_FLR_2 ZN,hourly; !- [J]
Output:Meter:Cumulative,Heating:EnergyTransfer:Zone:IC_PATROOM2_FLR_2 ZN,hourly; !- [J]
Output:Meter,General:Heating:EnergyTransfer:Zone:IC_PATROOM2_FLR_2 ZN,hourly; !- [J]
Output:Meter:Cumulative,General:Heating:EnergyTransfer:Zone:IC_PATROOM2_FLR_2 ZN,hourly; !- [J]
Output:Meter,Cooling:EnergyTransfer:Zone:IC_PATROOM2_FLR_2 ZN,hourly; !- [J]
Output:Meter:Cumulative,Cooling:EnergyTransfer:Zone:IC_PATROOM2_FLR_2 ZN,hourly; !- [J]
Output:Meter,General:Cooling:EnergyTransfer:Zone:IC_PATROOM2_FLR_2 ZN,hourly; !- [J]
Output:Meter:Cumulative,General:Cooling:EnergyTransfer:Zone:IC_PATROOM2_FLR_2 ZN,hourly; !- [J]
Output:Meter,EnergyTransfer:Zone:IC_PATROOM3_MULT6_FLR_2 ZN,hourly; !- [J]
Output:Meter:Cumulative,EnergyTransfer:Zone:IC_PATROOM3_MULT6_FLR_2 ZN,hourly; !- [J]
Output:Meter,Heating:EnergyTransfer:Zone:IC_PATROOM3_MULT6_FLR_2 ZN,hourly; !- [J]
Output:Meter:Cumulative,Heating:EnergyTransfer:Zone:IC_PATROOM3_MULT6_FLR_2 ZN,hourly; !- [J]
Output:Meter,General:Heating:EnergyTransfer:Zone:IC_PATROOM3_MULT6_FLR_2 ZN,hourly; !- [J]
Output:Meter:Cumulative,General:Heating:EnergyTransfer:Zone:IC_PATROOM3_MULT6_FLR_2 ZN,hourly; !- [J]
Output:Meter,Cooling:EnergyTransfer:Zone:IC_PATROOM3_MULT6_FLR_2 ZN,hourly; !- [J]
Output:Meter:Cumulative,Cooling:EnergyTransfer:Zone:IC_PATROOM3_MULT6_FLR_2 ZN,hourly; !- [J]
Output:Meter,General:Cooling:EnergyTransfer:Zone:IC_PATROOM3_MULT6_FLR_2 ZN,hourly; !- [J]
Output:Meter:Cumulative,General:Cooling:EnergyTransfer:Zone:IC_PATROOM3_MULT6_FLR_2 ZN,hourly; !- [J]
Output:Meter,Heating:EnergyTransfer:Zone:KITCHEN_FLR_5 ZN,hourly; !- [J]
Output:Meter:Cumulative,Heating:EnergyTransfer:Zone:KITCHEN_FLR_5 ZN,hourly; !- [J]
Output:Meter,General:Heating:EnergyTransfer:Zone:KITCHEN_FLR_5 ZN,hourly; !- [J]
Output:Meter:Cumulative,General:Heating:EnergyTransfer:Zone:KITCHEN_FLR_5 ZN,hourly; !- [J]
Output:Meter,Cooling:EnergyTransfer:Zone:KITCHEN_FLR_5 ZN,hourly; !- [J]
Output:Meter:Cumulative,Cooling:EnergyTransfer:Zone:KITCHEN_FLR_5 ZN,hourly; !- [J]
Output:Meter,General:Cooling:EnergyTransfer:Zone:KITCHEN_FLR_5 ZN,hourly; !- [J]
Output:Meter:Cumulative,General:Cooling:EnergyTransfer:Zone:KITCHEN_FLR_5 ZN,hourly; !- [J]
Output:Meter,EnergyTransfer:Zone:LAB_FLR_3 ZN,hourly; !- [J]
Output:Meter:Cumulative,EnergyTransfer:Zone:LAB_FLR_3 ZN,hourly; !- [J]
Output:Meter,Heating:EnergyTransfer:Zone:LAB_FLR_3 ZN,hourly; !- [J]
Output:Meter:Cumulative,Heating:EnergyTransfer:Zone:LAB_FLR_3 ZN,hourly; !- [J]
Output:Meter,General:Heating:EnergyTransfer:Zone:LAB_FLR_3 ZN,hourly; !- [J]
Output:Meter:Cumulative,General:Heating:EnergyTransfer:Zone:LAB_FLR_3 ZN,hourly; !- [J]
Output:Meter,Cooling:EnergyTransfer:Zone:LAB_FLR_3 ZN,hourly; !- [J]
Output:Meter:Cumulative,Cooling:EnergyTransfer:Zone:LAB_FLR_3 ZN,hourly; !- [J]
Output:Meter,General:Cooling:EnergyTransfer:Zone:LAB_FLR_3 ZN,hourly; !- [J]
Output:Meter:Cumulative,General:Cooling:EnergyTransfer:Zone:LAB_FLR_3 ZN,hourly; !- [J]
Output:Meter,EnergyTransfer:Zone:LAB_FLR_4 ZN,hourly; !- [J]
Output:Meter:Cumulative,EnergyTransfer:Zone:LAB_FLR_4 ZN,hourly; !- [J]
Output:Meter,Heating:EnergyTransfer:Zone:LAB_FLR_4 ZN,hourly; !- [J]
Output:Meter:Cumulative,Heating:EnergyTransfer:Zone:LAB_FLR_4 ZN,hourly; !- [J]
Output:Meter,General:Heating:EnergyTransfer:Zone:LAB_FLR_4 ZN,hourly; !- [J]
Output:Meter:Cumulative,General:Heating:EnergyTransfer:Zone:LAB_FLR_4 ZN,hourly; !- [J]
Output:Meter,Cooling:EnergyTransfer:Zone:LAB_FLR_4 ZN,hourly; !- [J]
Output:Meter:Cumulative,Cooling:EnergyTransfer:Zone:LAB_FLR_4 ZN,hourly; !- [J]
Output:Meter,General:Cooling:EnergyTransfer:Zone:LAB_FLR_4 ZN,hourly; !- [J]
Output:Meter:Cumulative,General:Cooling:EnergyTransfer:Zone:LAB_FLR_4 ZN,hourly; !- [J]
Output:Meter,EnergyTransfer:Zone:LOBBY_RECORDS_FLR_1 ZN,hourly; !- [J]
Output:Meter:Cumulative,EnergyTransfer:Zone:LOBBY_RECORDS_FLR_1 ZN,hourly; !- [J]
Output:Meter,Heating:EnergyTransfer:Zone:LOBBY_RECORDS_FLR_1 ZN,hourly; !- [J]
Output:Meter:Cumulative,Heating:EnergyTransfer:Zone:LOBBY_RECORDS_FLR_1 ZN,hourly; !- [J]
Output:Meter,General:Heating:EnergyTransfer:Zone:LOBBY_RECORDS_FLR_1 ZN,hourly; !- [J]
Output:Meter:Cumulative,General:Heating:EnergyTransfer:Zone:LOBBY_RECORDS_FLR_1 ZN,hourly; !- [J]
Output:Meter,Cooling:EnergyTransfer:Zone:LOBBY_RECORDS_FLR_1 ZN,hourly; !- [J]
Output:Meter:Cumulative,Cooling:EnergyTransfer:Zone:LOBBY_RECORDS_FLR_1 ZN,hourly; !- [J]
Output:Meter,General:Cooling:EnergyTransfer:Zone:LOBBY_RECORDS_FLR_1 ZN,hourly; !- [J]
Output:Meter:Cumulative,General:Cooling:EnergyTransfer:Zone:LOBBY_RECORDS_FLR_1 ZN,hourly; !- [J]
Output:Meter,EnergyTransfer:Zone:NURSESTN_LOBBY_FLR_3 ZN,hourly; !- [J]
Output:Meter:Cumulative,EnergyTransfer:Zone:NURSESTN_LOBBY_FLR_3 ZN,hourly; !- [J]
Output:Meter,Heating:EnergyTransfer:Zone:NURSESTN_LOBBY_FLR_3 ZN,hourly; !- [J]
Output:Meter:Cumulative,Heating:EnergyTransfer:Zone:NURSESTN_LOBBY_FLR_3 ZN,hourly; !- [J]
Output:Meter,General:Heating:EnergyTransfer:Zone:NURSESTN_LOBBY_FLR_3 ZN,hourly; !- [J]
Output:Meter:Cumulative,General:Heating:EnergyTransfer:Zone:NURSESTN_LOBBY_FLR_3 ZN,hourly; !- [J]
Output:Meter,Cooling:EnergyTransfer:Zone:NURSESTN_LOBBY_FLR_3 ZN,hourly; !- [J]
Output:Meter:Cumulative,Cooling:EnergyTransfer:Zone:NURSESTN_LOBBY_FLR_3 ZN,hourly; !- [J]
Output:Meter,General:Cooling:EnergyTransfer:Zone:NURSESTN_LOBBY_FLR_3 ZN,hourly; !- [J]
Output:Meter:Cumulative,General:Cooling:EnergyTransfer:Zone:NURSESTN_LOBBY_FLR_3 ZN,hourly; !- [J]
Output:Meter,EnergyTransfer:Zone:NURSESTN_LOBBY_FLR_4 ZN,hourly; !- [J]
Output:Meter:Cumulative,EnergyTransfer:Zone:NURSESTN_LOBBY_FLR_4 ZN,hourly; !- [J]
Output:Meter,Heating:EnergyTransfer:Zone:NURSESTN_LOBBY_FLR_4 ZN,hourly; !- [J]
Output:Meter:Cumulative,Heating:EnergyTransfer:Zone:NURSESTN_LOBBY_FLR_4 ZN,hourly; !- [J]
Output:Meter,General:Heating:EnergyTransfer:Zone:NURSESTN_LOBBY_FLR_4 ZN,hourly; !- [J]
Output:Meter:Cumulative,General:Heating:EnergyTransfer:Zone:NURSESTN_LOBBY_FLR_4 ZN,hourly; !- [J]
Output:Meter,Cooling:EnergyTransfer:Zone:NURSESTN_LOBBY_FLR_4 ZN,hourly; !- [J]
Output:Meter:Cumulative,Cooling:EnergyTransfer:Zone:NURSESTN_LOBBY_FLR_4 ZN,hourly; !- [J]
Output:Meter,General:Cooling:EnergyTransfer:Zone:NURSESTN_LOBBY_FLR_4 ZN,hourly; !- [J]
Output:Meter:Cumulative,General:Cooling:EnergyTransfer:Zone:NURSESTN_LOBBY_FLR_4 ZN,hourly; !- [J]
Output:Meter,EnergyTransfer:Zone:NURSESTN_LOBBY_FLR_5 ZN,hourly; !- [J]
Output:Meter:Cumulative,EnergyTransfer:Zone:NURSESTN_LOBBY_FLR_5 ZN,hourly; !- [J]
Output:Meter,Heating:EnergyTransfer:Zone:NURSESTN_LOBBY_FLR_5 ZN,hourly; !- [J]
Output:Meter:Cumulative,Heating:EnergyTransfer:Zone:NURSESTN_LOBBY_FLR_5 ZN,hourly; !- [J]
Output:Meter,General:Heating:EnergyTransfer:Zone:NURSESTN_LOBBY_FLR_5 ZN,hourly; !- [J]
Output:Meter:Cumulative,General:Heating:EnergyTransfer:Zone:NURSESTN_LOBBY_FLR_5 ZN,hourly; !- [J]
Output:Meter,Cooling:EnergyTransfer:Zone:NURSESTN_LOBBY_FLR_5 ZN,hourly; !- [J]
Output:Meter:Cumulative,Cooling:EnergyTransfer:Zone:NURSESTN_LOBBY_FLR_5 ZN,hourly; !- [J]
Output:Meter,General:Cooling:EnergyTransfer:Zone:NURSESTN_LOBBY_FLR_5 ZN,hourly; !- [J]
Output:Meter:Cumulative,General:Cooling:EnergyTransfer:Zone:NURSESTN_LOBBY_FLR_5 ZN,hourly; !- [J]
Output:Meter,EnergyTransfer:Zone:OFFICE1_FLR_5 ZN,hourly; !- [J]
Output:Meter:Cumulative,EnergyTransfer:Zone:OFFICE1_FLR_5 ZN,hourly; !- [J]
Output:Meter,Heating:EnergyTransfer:Zone:OFFICE1_FLR_5 ZN,hourly; !- [J]
Output:Meter:Cumulative,Heating:EnergyTransfer:Zone:OFFICE1_FLR_5 ZN,hourly; !- [J]
Output:Meter,General:Heating:EnergyTransfer:Zone:OFFICE1_FLR_5 ZN,hourly; !- [J]
Output:Meter:Cumulative,General:Heating:EnergyTransfer:Zone:OFFICE1_FLR_5 ZN,hourly; !- [J]
Output:Meter,Cooling:EnergyTransfer:Zone:OFFICE1_FLR_5 ZN,hourly; !- [J]
Output:Meter:Cumulative,Cooling:EnergyTransfer:Zone:OFFICE1_FLR_5 ZN,hourly; !- [J]
Output:Meter,General:Cooling:EnergyTransfer:Zone:OFFICE1_FLR_5 ZN,hourly; !- [J]
Output:Meter:Cumulative,General:Cooling:EnergyTransfer:Zone:OFFICE1_FLR_5 ZN,hourly; !- [J]
Output:Meter,EnergyTransfer:Zone:OFFICE1_MULT4_FLR_1 ZN,hourly; !- [J]
Output:Meter:Cumulative,EnergyTransfer:Zone:OFFICE1_MULT4_FLR_1 ZN,hourly; !- [J]
Output:Meter,Heating:EnergyTransfer:Zone:OFFICE1_MULT4_FLR_1 ZN,hourly; !- [J]
Output:Meter:Cumulative,Heating:EnergyTransfer:Zone:OFFICE1_MULT4_FLR_1 ZN,hourly; !- [J]
Output:Meter,General:Heating:EnergyTransfer:Zone:OFFICE1_MULT4_FLR_1 ZN,hourly; !- [J]
Output:Meter:Cumulative,General:Heating:EnergyTransfer:Zone:OFFICE1_MULT4_FLR_1 ZN,hourly; !- [J]
Output:Meter,Cooling:EnergyTransfer:Zone:OFFICE1_MULT4_FLR_1 ZN,hourly; !- [J]
Output:Meter:Cumulative,Cooling:EnergyTransfer:Zone:OFFICE1_MULT4_FLR_1 ZN,hourly; !- [J]
Output:Meter,General:Cooling:EnergyTransfer:Zone:OFFICE1_MULT4_FLR_1 ZN,hourly; !- [J]
Output:Meter:Cumulative,General:Cooling:EnergyTransfer:Zone:OFFICE1_MULT4_FLR_1 ZN,hourly; !- [J]
Output:Meter,EnergyTransfer:Zone:OFFICE2_MULT5_FLR_5 ZN,hourly; !- [J]
Output:Meter:Cumulative,EnergyTransfer:Zone:OFFICE2_MULT5_FLR_5 ZN,hourly; !- [J]
Output:Meter,Heating:EnergyTransfer:Zone:OFFICE2_MULT5_FLR_5 ZN,hourly; !- [J]
Output:Meter:Cumulative,Heating:EnergyTransfer:Zone:OFFICE2_MULT5_FLR_5 ZN,hourly; !- [J]
Output:Meter,General:Heating:EnergyTransfer:Zone:OFFICE2_MULT5_FLR_5 ZN,hourly; !- [J]
Output:Meter:Cumulative,General:Heating:EnergyTransfer:Zone:OFFICE2_MULT5_FLR_5 ZN,hourly; !- [J]
Output:Meter,Cooling:EnergyTransfer:Zone:OFFICE2_MULT5_FLR_5 ZN,hourly; !- [J]
Output:Meter:Cumulative,Cooling:EnergyTransfer:Zone:OFFICE2_MULT5_FLR_5 ZN,hourly; !- [J]
Output:Meter,General:Cooling:EnergyTransfer:Zone:OFFICE2_MULT5_FLR_5 ZN,hourly; !- [J]
Output:Meter:Cumulative,General:Cooling:EnergyTransfer:Zone:OFFICE2_MULT5_FLR_5 ZN,hourly; !- [J]
Output:Meter,EnergyTransfer:Zone:OFFICE3_FLR_5 ZN,hourly; !- [J]
Output:Meter:Cumulative,EnergyTransfer:Zone:OFFICE3_FLR_5 ZN,hourly; !- [J]
Output:Meter,Heating:EnergyTransfer:Zone:OFFICE3_FLR_5 ZN,hourly; !- [J]
Output:Meter:Cumulative,Heating:EnergyTransfer:Zone:OFFICE3_FLR_5 ZN,hourly; !- [J]
Output:Meter,General:Heating:EnergyTransfer:Zone:OFFICE3_FLR_5 ZN,hourly; !- [J]
Output:Meter:Cumulative,General:Heating:EnergyTransfer:Zone:OFFICE3_FLR_5 ZN,hourly; !- [J]
Output:Meter,Cooling:EnergyTransfer:Zone:OFFICE3_FLR_5 ZN,hourly; !- [J]
Output:Meter:Cumulative,Cooling:EnergyTransfer:Zone:OFFICE3_FLR_5 ZN,hourly; !- [J]
Output:Meter,General:Cooling:EnergyTransfer:Zone:OFFICE3_FLR_5 ZN,hourly; !- [J]
Output:Meter:Cumulative,General:Cooling:EnergyTransfer:Zone:OFFICE3_FLR_5 ZN,hourly; !- [J]
Output:Meter,EnergyTransfer:Zone:OFFICE4_MULT6_FLR_5 ZN,hourly; !- [J]
Output:Meter:Cumulative,EnergyTransfer:Zone:OFFICE4_MULT6_FLR_5 ZN,hourly; !- [J]
Output:Meter,Heating:EnergyTransfer:Zone:OFFICE4_MULT6_FLR_5 ZN,hourly; !- [J]
Output:Meter:Cumulative,Heating:EnergyTransfer:Zone:OFFICE4_MULT6_FLR_5 ZN,hourly; !- [J]
Output:Meter,General:Heating:EnergyTransfer:Zone:OFFICE4_MULT6_FLR_5 ZN,hourly; !- [J]
Output:Meter:Cumulative,General:Heating:EnergyTransfer:Zone:OFFICE4_MULT6_FLR_5 ZN,hourly; !- [J]
Output:Meter,Cooling:EnergyTransfer:Zone:OFFICE4_MULT6_FLR_5 ZN,hourly; !- [J]
Output:Meter:Cumulative,Cooling:EnergyTransfer:Zone:OFFICE4_MULT6_FLR_5 ZN,hourly; !- [J]
Output:Meter,General:Cooling:EnergyTransfer:Zone:OFFICE4_MULT6_FLR_5 ZN,hourly; !- [J]
Output:Meter:Cumulative,General:Cooling:EnergyTransfer:Zone:OFFICE4_MULT6_FLR_5 ZN,hourly; !- [J]
Output:Meter,EnergyTransfer:Zone:OR1_FLR_2 ZN,hourly; !- [J]
Output:Meter:Cumulative,EnergyTransfer:Zone:OR1_FLR_2 ZN,hourly; !- [J]
Output:Meter,Heating:EnergyTransfer:Zone:OR1_FLR_2 ZN,hourly; !- [J]
Output:Meter:Cumulative,Heating:EnergyTransfer:Zone:OR1_FLR_2 ZN,hourly; !- [J]
Output:Meter,General:Heating:EnergyTransfer:Zone:OR1_FLR_2 ZN,hourly; !- [J]
Output:Meter:Cumulative,General:Heating:EnergyTransfer:Zone:OR1_FLR_2 ZN,hourly; !- [J]
Output:Meter,Cooling:EnergyTransfer:Zone:OR1_FLR_2 ZN,hourly; !- [J]
Output:Meter:Cumulative,Cooling:EnergyTransfer:Zone:OR1_FLR_2 ZN,hourly; !- [J]
Output:Meter,General:Cooling:EnergyTransfer:Zone:OR1_FLR_2 ZN,hourly; !- [J]
Output:Meter:Cumulative,General:Cooling:EnergyTransfer:Zone:OR1_FLR_2 ZN,hourly; !- [J]
Output:Meter,EnergyTransfer:Zone:OR2_MULT5_FLR_2 ZN,hourly; !- [J]
Output:Meter:Cumulative,EnergyTransfer:Zone:OR2_MULT5_FLR_2 ZN,hourly; !- [J]
Output:Meter,Heating:EnergyTransfer:Zone:OR2_MULT5_FLR_2 ZN,hourly; !- [J]
Output:Meter:Cumulative,Heating:EnergyTransfer:Zone:OR2_MULT5_FLR_2 ZN,hourly; !- [J]
Output:Meter,General:Heating:EnergyTransfer:Zone:OR2_MULT5_FLR_2 ZN,hourly; !- [J]
Output:Meter:Cumulative,General:Heating:EnergyTransfer:Zone:OR2_MULT5_FLR_2 ZN,hourly; !- [J]
Output:Meter,Cooling:EnergyTransfer:Zone:OR2_MULT5_FLR_2 ZN,hourly; !- [J]
Output:Meter:Cumulative,Cooling:EnergyTransfer:Zone:OR2_MULT5_FLR_2 ZN,hourly; !- [J]
Output:Meter,General:Cooling:EnergyTransfer:Zone:OR2_MULT5_FLR_2 ZN,hourly; !- [J]
Output:Meter:Cumulative,General:Cooling:EnergyTransfer:Zone:OR2_MULT5_FLR_2 ZN,hourly; !- [J]
Output:Meter,EnergyTransfer:Zone:OR3_FLR_2 ZN,hourly; !- [J]
Output:Meter:Cumulative,EnergyTransfer:Zone:OR3_FLR_2 ZN,hourly; !- [J]
Output:Meter,Heating:EnergyTransfer:Zone:OR3_FLR_2 ZN,hourly; !- [J]
Output:Meter:Cumulative,Heating:EnergyTransfer:Zone:OR3_FLR_2 ZN,hourly; !- [J]
Output:Meter,General:Heating:EnergyTransfer:Zone:OR3_FLR_2 ZN,hourly; !- [J]
Output:Meter:Cumulative,General:Heating:EnergyTransfer:Zone:OR3_FLR_2 ZN,hourly; !- [J]
Output:Meter,Cooling:EnergyTransfer:Zone:OR3_FLR_2 ZN,hourly; !- [J]
Output:Meter:Cumulative,Cooling:EnergyTransfer:Zone:OR3_FLR_2 ZN,hourly; !- [J]
Output:Meter,General:Cooling:EnergyTransfer:Zone:OR3_FLR_2 ZN,hourly; !- [J]
Output:Meter:Cumulative,General:Cooling:EnergyTransfer:Zone:OR3_FLR_2 ZN,hourly; !- [J]
Output:Meter,EnergyTransfer:Zone:OR4_FLR_2 ZN,hourly; !- [J]
Output:Meter:Cumulative,EnergyTransfer:Zone:OR4_FLR_2 ZN,hourly; !- [J]
[...]
Output:Meter,Cooling:EnergyTransfer:Zone:PATROOM4_FLR_3 ZN,hourly; !- [J]
Output:Meter:Cumulative,Cooling:EnergyTransfer:Zone:PATROOM4_FLR_3 ZN,hourly; !- [J]
Output:Meter,General:Cooling:EnergyTransfer:Zone:PATROOM4_FLR_3 ZN,hourly; !- [J]
Output:Meter:Cumulative,General:Cooling:EnergyTransfer:Zone:PATROOM4_FLR_3 ZN,hourly; !- [J]
Output:Meter,EnergyTransfer:Zone:PATROOM4_FLR_4 ZN,hourly; !- [J]
Output:Meter:Cumulative,EnergyTransfer:Zone:PATROOM4_FLR_4 ZN,hourly; !- [J]
Output:Meter,Heating:EnergyTransfer:Zone:PATROOM4_FLR_4 ZN,hourly; !- [J]
Output:Meter:Cumulative,Heating:EnergyTransfer:Zone:PATROOM4_FLR_4 ZN,hourly; !- [J]
Output:Meter,General:Heating:EnergyTransfer:Zone:PATROOM4_FLR_4 ZN,hourly; !- [J]
Output:Meter:Cumulative,General:Heating:EnergyTransfer:Zone:PATROOM4_FLR_4 ZN,hourly; !- [J]
Output:Meter,Cooling:EnergyTransfer:Zone:PATROOM4_FLR_4 ZN,hourly; !- [J]
Output:Meter:Cumulative,Cooling:EnergyTransfer:Zone:PATROOM4_FLR_4 ZN,hourly; !- [J]
Output:Meter,General:Cooling:EnergyTransfer:Zone:PATROOM4_FLR_4 ZN,hourly; !- [J]
Output:Meter:Cumulative,General:Cooling:EnergyTransfer:Zone:PATROOM4_FLR_4 ZN,hourly; !- [J]
Output:Meter,EnergyTransfer:Zone:PATROOM5_MULT10_FLR_3 ZN,hourly; !- [J]
Output:Meter:Cumulative,EnergyTransfer:Zone:PATROOM5_MULT10_FLR_3 ZN,hourly; !- [J]
Output:Meter,Heating:EnergyTransfer:Zone:PATROOM5_MULT10_FLR_3 ZN,hourly; !- [J]
Output:Meter:Cumulative,Heating:EnergyTransfer:Zone:PATROOM5_MULT10_FLR_3 ZN,hourly; !- [J]
Output:Meter,General:Heating:EnergyTransfer:Zone:PATROOM5_MULT10_FLR_3 ZN,hourly; !- [J]
Output:Meter:Cumulative,General:Heating:EnergyTransfer:Zone:PATROOM5_MULT10_FLR_3 ZN,hourly; !- [J]
Output:Meter,Cooling:EnergyTransfer:Zone:PATROOM5_MULT10_FLR_3 ZN,hourly; !- [J]
Output:Meter:Cumulative,Cooling:EnergyTransfer:Zone:PATROOM5_MULT10_FLR_3 ZN,hourly; !- [J]
Output:Meter,General:Cooling:EnergyTransfer:Zone:PATROOM5_MULT10_FLR_3 ZN,hourly; !- [J]
Output:Meter:Cumulative,General:Cooling:EnergyTransfer:Zone:PATROOM5_MULT10_FLR_3 ZN,hourly; !- [J]
Output:Meter,EnergyTransfer:Zone:PATROOM5_MULT10_FLR_4 ZN,hourly; !- [J]
Output:Meter:Cumulative,EnergyTransfer:Zone:PATROOM5_MULT10_FLR_4 ZN,hourly; !- [J]
Output:Meter,Heating:EnergyTransfer:Zone:PATROOM5_MULT10_FLR_4 ZN,hourly; !- [J]
Output:Meter:Cumulative,Heating:EnergyTransfer:Zone:PATROOM5_MULT10_FLR_4 ZN,hourly; !- [J]
Output:Meter,General:Heating:EnergyTransfer:Zone:PATROOM5_MULT10_FLR_4 ZN,hourly; !- [J]
Output:Meter:Cumulative,General:Heating:EnergyTransfer:Zone:PATROOM5_MULT10_FLR_4 ZN,hourly; !- [J]
Output:Meter,Cooling:EnergyTransfer:Zone:PATROOM5_MULT10_FLR_4 ZN,hourly; !- [J]
Output:Meter:Cumulative,Cooling:EnergyTransfer:Zone:PATROOM5_MULT10_FLR_4 ZN,hourly; !- [J]
Output:Meter,General:Cooling:EnergyTransfer:Zone:PATROOM5_MULT10_FLR_4 ZN,hourly; !- [J]
Output:Meter:Cumulative,General:Cooling:EnergyTransfer:Zone:PATROOM5_MULT10_FLR_4 ZN,hourly; !- [J]
Output:Meter,EnergyTransfer:Zone:PATROOM6_FLR_3 ZN,hourly; !- [J]
Output:Meter:Cumulative,EnergyTransfer:Zone:PATROOM6_FLR_3 ZN,hourly; !- [J]
Output:Meter,Heating:EnergyTransfer:Zone:PATROOM6_FLR_3 ZN,hourly; !- [J]
Output:Meter:Cumulative,Heating:EnergyTransfer:Zone:PATROOM6_FLR_3 ZN,hourly; !- [J]
Output:Meter,General:Heating:EnergyTransfer:Zone:PATROOM6_FLR_3 ZN,hourly; !- [J]
Output:Meter:Cumulative,General:Heating:EnergyTransfer:Zone:PATROOM6_FLR_3 ZN,hourly; !- [J]
Output:Meter,Cooling:EnergyTransfer:Zone:PATROOM6_FLR_3 ZN,hourly; !- [J]
Output:Meter:Cumulative,Cooling:EnergyTransfer:Zone:PATROOM6_FLR_3 ZN,hourly; !- [J]
Output:Meter,General:Cooling:EnergyTransfer:Zone:PATROOM6_FLR_3 ZN,hourly; !- [J]
Output:Meter:Cumulative,General:Cooling:EnergyTransfer:Zone:PATROOM6_FLR_3 ZN,hourly; !- [J]
Output:Meter,EnergyTransfer:Zone:PATROOM6_FLR_4 ZN,hourly; !- [J]
Output:Meter:Cumulative,EnergyTransfer:Zone:PATROOM6_FLR_4 ZN,hourly; !- [J]
Output:Meter,Heating:EnergyTransfer:Zone:PATROOM6_FLR_4 ZN,hourly; !- [J]
Output:Meter:Cumulative,Heating:EnergyTransfer:Zone:PATROOM6_FLR_4 ZN,hourly; !- [J]
Output:Meter,General:Heating:EnergyTransfer:Zone:PATROOM6_FLR_4 ZN,hourly; !- [J]
Output:Meter:Cumulative,General:Heating:EnergyTransfer:Zone:PATROOM6_FLR_4 ZN,hourly; !- [J]
Output:Meter,Cooling:EnergyTransfer:Zone:PATROOM6_FLR_4 ZN,hourly; !- [J]
Output:Meter:Cumulative,Cooling:EnergyTransfer:Zone:PATROOM6_FLR_4 ZN,hourly; !- [J]
Output:Meter,General:Cooling:EnergyTransfer:Zone:PATROOM6_FLR_4 ZN,hourly; !- [J]
Output:Meter:Cumulative,General:Cooling:EnergyTransfer:Zone:PATROOM6_FLR_4 ZN,hourly; !- [J]
Output:Meter,EnergyTransfer:Zone:PATROOM7_MULT10_FLR_3 ZN,hourly; !- [J]
Output:Meter:Cumulative,EnergyTransfer:Zone:PATROOM7_MULT10_FLR_3 ZN,hourly; !- [J]
Output:Meter,Heating:EnergyTransfer:Zone:PATROOM7_MULT10_FLR_3 ZN,hourly; !- [J]
Output:Meter:Cumulative,Heating:EnergyTransfer:Zone:PATROOM7_MULT10_FLR_3 ZN,hourly; !- [J]
Output:Meter,General:Heating:EnergyTransfer:Zone:PATROOM7_MULT10_FLR_3 ZN,hourly; !- [J]
Output:Meter:Cumulative,General:Heating:EnergyTransfer:Zone:PATROOM7_MULT10_FLR_3 ZN,hourly; !- [J]
Output:Meter,Cooling:EnergyTransfer:Zone:PATROOM7_MULT10_FLR_3 ZN,hourly; !- [J]
Output:Meter:Cumulative,Cooling:EnergyTransfer:Zone:PATROOM7_MULT10_FLR_3 ZN,hourly; !- [J]
Output:Meter,General:Cooling:EnergyTransfer:Zone:PATROOM7_MULT10_FLR_3 ZN,hourly; !- [J]
Output:Meter:Cumulative,General:Cooling:EnergyTransfer:Zone:PATROOM7_MULT10_FLR_3 ZN,hourly; !- [J]
Output:Meter,EnergyTransfer:Zone:PATROOM7_MULT10_FLR_4 ZN,hourly; !- [J]
Output:Meter:Cumulative,EnergyTransfer:Zone:PATROOM7_MULT10_FLR_4 ZN,hourly; !- [J]
Output:Meter,Heating:EnergyTransfer:Zone:PATROOM7_MULT10_FLR_4 ZN,hourly; !- [J]
Output:Meter:Cumulative,Heating:EnergyTransfer:Zone:PATROOM7_MULT10_FLR_4 ZN,hourly; !- [J]
Output:Meter,General:Heating:EnergyTransfer:Zone:PATROOM7_MULT10_FLR_4 ZN,hourly; !- [J]
Output:Meter:Cumulative,General:Heating:EnergyTransfer:Zone:PATROOM7_MULT10_FLR_4 ZN,hourly; !- [J]
Output:Meter,Cooling:EnergyTransfer:Zone:PATROOM7_MULT10_FLR_4 ZN,hourly; !- [J]
Output:Meter:Cumulative,Cooling:EnergyTransfer:Zone:PATROOM7_MULT10_FLR_4 ZN,hourly; !- [J]
Output:Meter,General:Cooling:EnergyTransfer:Zone:PATROOM7_MULT10_FLR_4 ZN,hourly; !- [J]
Output:Meter:Cumulative,General:Cooling:EnergyTransfer:Zone:PATROOM7_MULT10_FLR_4 ZN,hourly; !- [J]
Output:Meter,EnergyTransfer:Zone:PATROOM8_FLR_3 ZN,hourly; !- [J]
Output:Meter:Cumulative,EnergyTransfer:Zone:PATROOM8_FLR_3 ZN,hourly; !- [J]
Output:Meter,Heating:EnergyTransfer:Zone:PATROOM8_FLR_3 ZN,hourly; !- [J]
Output:Meter:Cumulative,Heating:EnergyTransfer:Zone:PATROOM8_FLR_3 ZN,hourly; !- [J]
Output:Meter,General:Heating:EnergyTransfer:Zone:PATROOM8_FLR_3 ZN,hourly; !- [J]
Output:Meter:Cumulative,General:Heating:EnergyTransfer:Zone:PATROOM8_FLR_3 ZN,hourly; !- [J]
Output:Meter,Cooling:EnergyTransfer:Zone:PATROOM8_FLR_3 ZN,hourly; !- [J]
Output:Meter:Cumulative,Cooling:EnergyTransfer:Zone:PATROOM8_FLR_3 ZN,hourly; !- [J]
Output:Meter,General:Cooling:EnergyTransfer:Zone:PATROOM8_FLR_3 ZN,hourly; !- [J]
Output:Meter:Cumulative,General:Cooling:EnergyTransfer:Zone:PATROOM8_FLR_3 ZN,hourly; !- [J]
Output:Meter,EnergyTransfer:Zone:PATROOM8_FLR_4 ZN,hourly; !- [J]
Output:Meter:Cumulative,EnergyTransfer:Zone:PATROOM8_FLR_4 ZN,hourly; !- [J]
Output:Meter,Heating:EnergyTransfer:Zone:PATROOM8_FLR_4 ZN,hourly; !- [J]
Output:Meter:Cumulative,Heating:EnergyTransfer:Zone:PATROOM8_FLR_4 ZN,hourly; !- [J]
Output:Meter,General:Heating:EnergyTransfer:Zone:PATROOM8_FLR_4 ZN,hourly; !- [J]
Output:Meter:Cumulative,General:Heating:EnergyTransfer:Zone:PATROOM8_FLR_4 ZN,hourly; !- [J]
Output:Meter,Cooling:EnergyTransfer:Zone:PATROOM8_FLR_4 ZN,hourly; !- [J]
Output:Meter:Cumulative,Cooling:EnergyTransfer:Zone:PATROOM8_FLR_4 ZN,hourly; !- [J]
Output:Meter,General:Cooling:EnergyTransfer:Zone:PATROOM8_FLR_4 ZN,hourly; !- [J]
Output:Meter:Cumulative,General:Cooling:EnergyTransfer:Zone:PATROOM8_FLR_4 ZN,hourly; !- [J]
Output:Meter,EnergyTransfer:Zone:PHYSTHERAPY_FLR_3 ZN,hourly; !- [J]
Output:Meter:Cumulative,EnergyTransfer:Zone:PHYSTHERAPY_FLR_3 ZN,hourly; !- [J]
Output:Meter,Heating:EnergyTransfer:Zone:PHYSTHERAPY_FLR_3 ZN,hourly; !- [J]
Output:Meter:Cumulative,Heating:EnergyTransfer:Zone:PHYSTHERAPY_FLR_3 ZN,hourly; !- [J]
Output:Meter,General:Heating:EnergyTransfer:Zone:PHYSTHERAPY_FLR_3 ZN,hourly; !- [J]
Output:Meter:Cumulative,General:Heating:EnergyTransfer:Zone:PHYSTHERAPY_FLR_3 ZN,hourly; !- [J]
Output:Meter,Cooling:EnergyTransfer:Zone:PHYSTHERAPY_FLR_3 ZN,hourly; !- [J]
Output:Meter:Cumulative,Cooling:EnergyTransfer:Zone:PHYSTHERAPY_FLR_3 ZN,hourly; !- [J]
Output:Meter,General:Cooling:EnergyTransfer:Zone:PHYSTHERAPY_FLR_3 ZN,hourly; !- [J]
Output:Meter:Cumulative,General:Cooling:EnergyTransfer:Zone:PHYSTHERAPY_FLR_3 ZN,hourly; !- [J]
Output:Meter,EnergyTransfer:Zone:RADIOLOGY_FLR_4 ZN,hourly; !- [J]
Output:Meter:Cumulative,EnergyTransfer:Zone:RADIOLOGY_FLR_4 ZN,hourly; !- [J]
Output:Meter,Heating:EnergyTransfer:Zone:RADIOLOGY_FLR_4 ZN,hourly; !- [J]
Output:Meter:Cumulative,Heating:EnergyTransfer:Zone:RADIOLOGY_FLR_4 ZN,hourly; !- [J]
Output:Meter,General:Heating:EnergyTransfer:Zone:RADIOLOGY_FLR_4 ZN,hourly; !- [J]
Output:Meter:Cumulative,General:Heating:EnergyTransfer:Zone:RADIOLOGY_FLR_4 ZN,hourly; !- [J]
Output:Meter,Cooling:EnergyTransfer:Zone:RADIOLOGY_FLR_4 ZN,hourly; !- [J]
Output:Meter:Cumulative,Cooling:EnergyTransfer:Zone:RADIOLOGY_FLR_4 ZN,hourly; !- [J]
Output:Meter,General:Cooling:EnergyTransfer:Zone:RADIOLOGY_FLR_4 ZN,hourly; !- [J]
Output:Meter:Cumulative,General:Cooling:EnergyTransfer:Zone:RADIOLOGY_FLR_4 ZN,hourly; !- [J]
Output:Meter,PlantLoopHeatingDemand:Facility,hourly; !- [J]
Output:Meter:Cumulative,PlantLoopHeatingDemand:Facility,hourly; !- [J]
Output:Meter,PlantLoopHeatingDemand:Plant,hourly; !- [J]
Output:Meter:Cumulative,PlantLoopHeatingDemand:Plant,hourly; !- [J]
Output:Meter,WaterSystems:PlantLoopHeatingDemand,hourly; !- [J]
Output:Meter:Cumulative,WaterSystems:PlantLoopHeatingDemand,hourly; !- [J]
Output:Meter,General:WaterSystems:PlantLoopHeatingDemand,hourly; !- [J]
Output:Meter:Cumulative,General:WaterSystems:PlantLoopHeatingDemand,hourly; !- [J]
Output:Meter,Electricity:HVAC,hourly; !- [J]
Output:Meter:Cumulative,Electricity:HVAC,hourly; !- [J]
Output:Meter,ExteriorEquipment:Electricity,hourly; !- [J]
Output:Meter:Cumulative,ExteriorEquipment:Electricity,hourly; !- [J]
Output:Meter,Transformer:ExteriorEquipment:Electricity,hourly; !- [J]
Output:Meter:Cumulative,Transformer:ExteriorEquipment:Electricity,hourly; !- [J]
Output:Meter,ElectricityPurchased:Facility,hourly; !- [J]
Output:Meter:Cumulative,ElectricityPurchased:Facility,hourly; !- [J]
Output:Meter,ElectricityPurchased:Plant,hourly; !- [J]
Output:Meter:Cumulative,ElectricityPurchased:Plant,hourly; !- [J]
Output:Meter,Cogeneration:ElectricityPurchased,hourly; !- [J]
Output:Meter:Cumulative,Cogeneration:ElectricityPurchased,hourly; !- [J]
Output:Meter,General:Cogeneration:ElectricityPurchased,hourly; !- [J]
Output:Meter:Cumulative,General:Cogeneration:ElectricityPurchased,hourly; !- [J]
Output:Meter,ElectricitySurplusSold:Facility,hourly; !- [J]
Output:Meter:Cumulative,ElectricitySurplusSold:Facility,hourly; !- [J]
Output:Meter,ElectricitySurplusSold:Plant,hourly; !- [J]
Output:Meter:Cumulative,ElectricitySurplusSold:Plant,hourly; !- [J]
Output:Meter,Cogeneration:ElectricitySurplusSold,hourly; !- [J]
Output:Meter:Cumulative,Cogeneration:ElectricitySurplusSold,hourly; !- [J]
Output:Meter,General:Cogeneration:ElectricitySurplusSold,hourly; !- [J]
Output:Meter:Cumulative,General:Cogeneration:ElectricitySurplusSold,hourly; !- [J]
Output:Meter,ElectricityNet:Facility,hourly; !- [J]
Output:Meter:Cumulative,ElectricityNet:Facility,hourly; !- [J]
Output:Meter,ElectricityNet:Plant,hourly; !- [J]
Output:Meter:Cumulative,ElectricityNet:Plant,hourly; !- [J]
Output:Meter,Cogeneration:ElectricityNet,hourly; !- [J]
Output:Meter:Cumulative,Cogeneration:ElectricityNet,hourly; !- [J]
Output:Meter,General:Cogeneration:ElectricityNet,hourly; !- [J]
Output:Meter:Cumulative,General:Cogeneration:ElectricityNet,hourly; !- [J]
Output:Meter,EnergyTransfer:HVAC,hourly; !- [J]
Output:Meter:Cumulative,EnergyTransfer:HVAC,hourly; !- [J]
Output:Meter,HeatingCoils:EnergyTransfer,hourly; !- [J]
Output:Meter:Cumulative,HeatingCoils:EnergyTransfer,hourly; !- [J]
Output:Meter,PlantLoopHeatingDemand:HVAC,hourly; !- [J]
Output:Meter:Cumulative,PlantLoopHeatingDemand:HVAC,hourly; !- [J]
Output:Meter,HeatingCoils:PlantLoopHeatingDemand,hourly; !- [J]
Output:Meter:Cumulative,HeatingCoils:PlantLoopHeatingDemand,hourly; !- [J]
Output:Meter,CoolingCoils:EnergyTransfer,hourly; !- [J]
Output:Meter:Cumulative,CoolingCoils:EnergyTransfer,hourly; !- [J]
Output:Meter,PlantLoopCoolingDemand:Facility,hourly; !- [J]
Output:Meter:Cumulative,PlantLoopCoolingDemand:Facility,hourly; !- [J]
Output:Meter,PlantLoopCoolingDemand:HVAC,hourly; !- [J]
Output:Meter:Cumulative,PlantLoopCoolingDemand:HVAC,hourly; !- [J]
Output:Meter,CoolingCoils:PlantLoopCoolingDemand,hourly; !- [J]
Output:Meter:Cumulative,CoolingCoils:PlantLoopCoolingDemand,hourly; !- [J]
Output:Meter,Fans:Electricity,hourly; !- [J]
Output:Meter:Cumulative,Fans:Electricity,hourly; !- [J]
Output:Meter,CAV System Fans:Fans:Electricity,hourly; !- [J]
Output:Meter:Cumulative,CAV System Fans:Fans:Electricity,hourly; !- [J]
Output:Meter,VAV System Fans:Fans:Electricity,hourly; !- [J]
Output:Meter:Cumulative,VAV System Fans:Fans:Electricity,hourly; !- [J]
Output:Meter,General:Fans:Electricity,hourly; !- [J]
Output:Meter:Cumulative,General:Fans:Electricity,hourly; !- [J]
Output:Meter,ExteriorLights:Electricity,hourly; !- [J]
Output:Meter:Cumulative,ExteriorLights:Electricity,hourly; !- [J]
Output:Meter,General:ExteriorLights:Electricity,hourly; !- [J]
Output:Meter:Cumulative,General:ExteriorLights:Electricity,hourly; !- [J]
Output:Meter,General:ExteriorEquipment:Electricity,hourly; !- [J]
Output:Meter:Cumulative,General:ExteriorEquipment:Electricity,hourly; !- [J]
Output:Meter,Water:Facility,hourly; !- [m3]
Output:Meter:Cumulative,Water:Facility,hourly; !- [m3]
Output:Meter,Water:HVAC,hourly; !- [m3]
Output:Meter:Cumulative,Water:HVAC,hourly; !- [m3]
Output:Meter,Humidifier:Water,hourly; !- [m3]
Output:Meter:Cumulative,Humidifier:Water,hourly; !- [m3]
Output:Meter,General:Humidifier:Water,hourly; !- [m3]
Output:Meter:Cumulative,General:Humidifier:Water,hourly; !- [m3]
Output:Meter,MainsWater:Facility,hourly; !- [m3]
Output:Meter:Cumulative,MainsWater:Facility,hourly; !- [m3]
Output:Meter,MainsWater:HVAC,hourly; !- [m3]
Output:Meter:Cumulative,MainsWater:HVAC,hourly; !- [m3]
Output:Meter,Humidifier:MainsWater,hourly; !- [m3]
Output:Meter:Cumulative,Humidifier:MainsWater,hourly; !- [m3]
Output:Meter,General:Humidifier:MainsWater,hourly; !- [m3]
Output:Meter:Cumulative,General:Humidifier:MainsWater,hourly; !- [m3]
Output:Meter,Humidifier:Electricity,hourly; !- [J]
Output:Meter:Cumulative,Humidifier:Electricity,hourly; !- [J]
Output:Meter,General:Humidifier:Electricity,hourly; !- [J]
Output:Meter:Cumulative,General:Humidifier:Electricity,hourly; !- [J]
Output:Meter,Heating:Electricity,hourly; !- [J]
Output:Meter:Cumulative,Heating:Electricity,hourly; !- [J]
Output:Meter,General:Heating:Electricity,hourly; !- [J]
Output:Meter:Cumulative,General:Heating:Electricity,hourly; !- [J]
Output:Meter,Cooling:Electricity,hourly; !- [J]
Output:Meter:Cumulative,Cooling:Electricity,hourly; !- [J]
Output:Meter,General:Cooling:Electricity,hourly; !- [J]
Output:Meter:Cumulative,General:Cooling:Electricity,hourly; !- [J]
Output:Meter,EnergyTransfer:Plant,hourly; !- [J]
Output:Meter:Cumulative,EnergyTransfer:Plant,hourly; !- [J]
Output:Meter,Chillers:EnergyTransfer,hourly; !- [J]
Output:Meter:Cumulative,Chillers:EnergyTransfer,hourly; !- [J]
Output:Meter,HeatRejection:EnergyTransfer,hourly; !- [J]
Output:Meter:Cumulative,HeatRejection:EnergyTransfer,hourly; !- [J]
Output:Meter,General:HeatRejection:EnergyTransfer,hourly; !- [J]
Output:Meter:Cumulative,General:HeatRejection:EnergyTransfer,hourly; !- [J]
Output:Meter,Water:Plant,hourly; !- [m3]
Output:Meter:Cumulative,Water:Plant,hourly; !- [m3]
Output:Meter,WaterSystems:Water,hourly; !- [m3]
Output:Meter:Cumulative,WaterSystems:Water,hourly; !- [m3]
Output:Meter,General:WaterSystems:Water,hourly; !- [m3]
Output:Meter:Cumulative,General:WaterSystems:Water,hourly; !- [m3]
Output:Meter,MainsWater:Plant,hourly; !- [m3]
Output:Meter:Cumulative,MainsWater:Plant,hourly; !- [m3]
Output:Meter,WaterSystems:MainsWater,hourly; !- [m3]
Output:Meter:Cumulative,WaterSystems:MainsWater,hourly; !- [m3]
Output:Meter,General:WaterSystems:MainsWater,hourly; !- [m3]
Output:Meter:Cumulative,General:WaterSystems:MainsWater,hourly; !- [m3]
Output:Meter,WaterSystems:EnergyTransfer,hourly; !- [J]
Output:Meter:Cumulative,WaterSystems:EnergyTransfer,hourly; !- [J]
Output:Meter,General:WaterSystems:EnergyTransfer,hourly; !- [J]
Output:Meter:Cumulative,General:WaterSystems:EnergyTransfer,hourly; !- [J]
Output:Meter,LoopToLoop:EnergyTransfer,hourly; !- [J]
Output:Meter:Cumulative,LoopToLoop:EnergyTransfer,hourly; !- [J]
Output:Meter,HeatRejection:Electricity,hourly; !- [J]
Output:Meter:Cumulative,HeatRejection:Electricity,hourly; !- [J]
Output:Meter,General:HeatRejection:Electricity,hourly; !- [J]
Output:Meter:Cumulative,General:HeatRejection:Electricity,hourly; !- [J]
Output:Meter,HeatRejection:Water,hourly; !- [m3]
Output:Meter:Cumulative,HeatRejection:Water,hourly; !- [m3]
Output:Meter,General:HeatRejection:Water,hourly; !- [m3]
Output:Meter:Cumulative,General:HeatRejection:Water,hourly; !- [m3]
Output:Meter,HeatRejection:MainsWater,hourly; !- [m3]
Output:Meter:Cumulative,HeatRejection:MainsWater,hourly; !- [m3]
Output:Meter,General:HeatRejection:MainsWater,hourly; !- [m3]
Output:Meter:Cumulative,General:HeatRejection:MainsWater,hourly; !- [m3]
Output:Meter,Boilers:EnergyTransfer,hourly; !- [J]
Output:Meter:Cumulative,Boilers:EnergyTransfer,hourly; !- [J]
Output:Meter,NaturalGas:Plant,hourly; !- [J]
Output:Meter:Cumulative,NaturalGas:Plant,hourly; !- [J]
Output:Meter,Heating:NaturalGas,hourly; !- [J]
Output:Meter:Cumulative,Heating:NaturalGas,hourly; !- [J]
Output:Meter,General:Heating:NaturalGas,hourly; !- [J]
Output:Meter:Cumulative,General:Heating:NaturalGas,hourly; !- [J]
Output:Meter,Boiler Parasitic:Heating:Electricity,hourly; !- [J]
Output:Meter:Cumulative,Boiler Parasitic:Heating:Electricity,hourly; !- [J]
Output:Meter,WaterSystems:NaturalGas,hourly; !- [J]
Output:Meter:Cumulative,WaterSystems:NaturalGas,hourly; !- [J]
Output:Meter,General:WaterSystems:NaturalGas,hourly; !- [J]
Output:Meter:Cumulative,General:WaterSystems:NaturalGas,hourly; !- [J]
Output:Meter,Booster:WaterSystems:PlantLoopHeatingDemand,hourly; !- [J]
Output:Meter:Cumulative,Booster:WaterSystems:PlantLoopHeatingDemand,hourly; !- [J]
Output:Meter,WaterSystems:Electricity,hourly; !- [J]
Output:Meter:Cumulative,WaterSystems:Electricity,hourly; !- [J]
Output:Meter,Booster:WaterSystems:Electricity,hourly; !- [J]
Output:Meter:Cumulative,Booster:WaterSystems:Electricity,hourly; !- [J]
Output:Meter,Booster:WaterSystems:Water,hourly; !- [m3]
Output:Meter:Cumulative,Booster:WaterSystems:Water,hourly; !- [m3]
Output:Meter,Booster:WaterSystems:MainsWater,hourly; !- [m3]
Output:Meter:Cumulative,Booster:WaterSystems:MainsWater,hourly; !- [m3]
Output:Meter,Pumps:Electricity,hourly; !- [J]
Output:Meter:Cumulative,Pumps:Electricity,hourly; !- [J]
Output:Meter,General:Pumps:Electricity,hourly; !- [J]
Output:Meter:Cumulative,General:Pumps:Electricity,hourly; !- [J]
Output:Meter,Carbon Equivalent:Facility,hourly; !- [kg]
Output:Meter:Cumulative,Carbon Equivalent:Facility,hourly; !- [kg]
Output:Meter,CarbonEquivalentEmissions:Carbon Equivalent,hourly; !- [kg]
Output:Meter:Cumulative,CarbonEquivalentEmissions:Carbon Equivalent,hourly; !- [kg]
Output:Meter,WIRED_LTG_ELECTRICITY,hourly; !- [J]
Output:Meter:Cumulative,WIRED_LTG_ELECTRICITY,hourly; !- [J]
