Program Version,EnergyPlus, Version 9.6.0-4b123cf80f, YMD=2022.03.25 18:57
! <Version>, Version ID
 Version, 9.6
! <Timesteps per Hour>, #TimeSteps, Minutes per TimeStep {minutes}
 Timesteps per Hour,  6, 10
! <System Convergence Limits>, Minimum System TimeStep {minutes}, Max HVAC Iterations, Minimum Plant Iterations, Maximum Plant Iterations
 System Convergence Limits, 1, 20, 2, 8
! <Simulation Control>, Do Zone Sizing, Do System Sizing, Do Plant Sizing, Do Design Days, Do Weather Simulation, Do HVAC Sizing Simulation
 Simulation Control, Yes, Yes, Yes, No, Yes, Yes
! <Performance Precision Tradeoffs>, Use Coil Direct Simulation, Zone Radiant Exchange Algorithm, Override Mode, Number of Timestep In Hour, Force Euler Method, Minimum Number of Warmup Days, Force Suppress All Begin Environment Resets, Minimum System Timestep, MaxZoneTempDiff, MaxAllowedDelTemp
 Performance Precision Tradeoffs, No, ScriptF, Normal, 6, No, 1, No, 1.0, 0.300, 2.0000E-003
! <Output Reporting Tolerances>, Tolerance for Time Heating Setpoint Not Met, Tolerance for Zone Cooling Setpoint Not Met Time
 Output Reporting Tolerances, 0.200, 0.200, 
! <Site:GroundTemperature:BuildingSurface>,Jan{C},Feb{C},Mar{C},Apr{C},May{C},Jun{C},Jul{C},Aug{C},Sep{C},Oct{C},Nov{C},Dec{C}
 Site:GroundTemperature:BuildingSurface,  18.00,  18.00,  18.00,  18.00,  18.00,  18.00,  18.00,  18.00,  18.00,  18.00,  18.00,  18.00
! <Site:GroundTemperature:FCfactorMethod>,Jan{C},Feb{C},Mar{C},Apr{C},May{C},Jun{C},Jul{C},Aug{C},Sep{C},Oct{C},Nov{C},Dec{C}
 Site:GroundTemperature:FCfactorMethod,  18.30,  11.20,   6.80,   8.10,  10.30,  12.50,  19.20,  23.80,  27.90,  27.50,  26.30,  23.40
! <Site:GroundTemperature:Shallow>,Jan{C},Feb{C},Mar{C},Apr{C},May{C},Jun{C},Jul{C},Aug{C},Sep{C},Oct{C},Nov{C},Dec{C}
 Site:GroundTemperature:Shallow,  13.00,  13.00,  13.00,  13.00,  13.00,  13.00,  13.00,  13.00,  13.00,  13.00,  13.00,  13.00
! <Site:GroundTemperature:Deep>,Jan{C},Feb{C},Mar{C},Apr{C},May{C},Jun{C},Jul{C},Aug{C},Sep{C},Oct{C},Nov{C},Dec{C}
 Site:GroundTemperature:Deep,  16.00,  16.00,  16.00,  16.00,  16.00,  16.00,  16.00,  16.00,  16.00,  16.00,  16.00,  16.00
! <Site:GroundReflectance>,Jan{dimensionless},Feb{dimensionless},Mar{dimensionless},Apr{dimensionless},May{dimensionless},Jun{dimensionless},Jul{dimensionless},Aug{dimensionless},Sep{dimensionless},Oct{dimensionless},Nov{dimensionless},Dec{dimensionless}
 Site:GroundReflectance,  0.20,  0.20,  0.20,  0.20,  0.20,  0.20,  0.20,  0.20,  0.20,  0.20,  0.20,  0.20
! <Site:GroundReflectance:SnowModifier>, Normal, Daylighting {dimensionless}
 Site:GroundReflectance:SnowModifier,   1.000,   1.000
! <Site:GroundReflectance:Snow>,Jan{dimensionless},Feb{dimensionless},Mar{dimensionless},Apr{dimensionless},May{dimensionless},Jun{dimensionless},Jul{dimensionless},Aug{dimensionless},Sep{dimensionless},Oct{dimensionless},Nov{dimensionless},Dec{dimensionless}
 Site:GroundReflectance:Snow,  0.20,  0.20,  0.20,  0.20,  0.20,  0.20,  0.20,  0.20,  0.20,  0.20,  0.20,  0.20
! <Site:GroundReflectance:Snow:Daylighting>,Jan{dimensionless},Feb{dimensionless},Mar{dimensionless},Apr{dimensionless},May{dimensionless},Jun{dimensionless},Jul{dimensionless},Aug{dimensionless},Sep{dimensionless},Oct{dimensionless},Nov{dimensionless},Dec{dimensionless}
 Site:GroundReflectance:Snow:Daylighting,  0.20,  0.20,  0.20,  0.20,  0.20,  0.20,  0.20,  0.20,  0.20,  0.20,  0.20,  0.20
! <Environment:Weather Station>,Wind Sensor Height Above Ground {m},Wind Speed Profile Exponent {},Wind Speed Profile Boundary Layer Thickness {m},Air Temperature Sensor Height Above Ground {m},Wind Speed Modifier Coefficient-Internal,Temperature Modifier Coefficient-Internal
Environment:Weather Station,10.000,0.140,270.000,1.500,1.586,9.750E-003
! <Site:Location>, Location Name, Latitude {N+/S- Deg}, Longitude {E+/W- Deg},  Time Zone Number {GMT+/-}, Elevation {m},  Standard Pressure at Elevation {Pa}, Standard RhoAir at Elevation
Site:Location,Red Bluff Municipal Arpt CA USA TMY3 WMO#=725910,40.15,-122.25,-8.00,106.00,100058,1.1893
! <Site Water Mains Temperature Information>,Calculation Method{},Water Mains Temperature Schedule Name{},Annual Average Outdoor Air Temperature{C},Maximum Difference In Monthly Average Outdoor Air Temperatures{deltaC},Fixed Default Water Mains Temperature{C}
Site Water Mains Temperature Information,Correlation,NA,17.94,21.10,NA
! <Building Information>, Building Name,North Axis {deg},Terrain,  Loads Convergence Tolerance Value,Temperature Convergence Tolerance Value,  Solar Distribution,Maximum Number of Warmup Days,Minimum Number of Warmup Days
 Building Information,-Hospital-ASHRAE 169-2013-3B created: 2022-03-25 18:08:48 -0600,270.000,City,4.00000E-002,0.40000,FullExterior,25,1
! <Inside Convection Algorithm>, Algorithm {Simple | TARP | CeilingDiffuser | AdaptiveConvectionAlgorithm}
Inside Convection Algorithm,TARP
! <Outside Convection Algorithm>, Algorithm {SimpleCombined | TARP | MoWitt | DOE-2 | AdaptiveConvectionAlgorithm}
Outside Convection Algorithm,TARP
! <Sky Radiance Distribution>, Value {Anisotropic}
Sky Radiance Distribution,Anisotropic
! <Zone Air Solution Algorithm>, Value {ThirdOrderBackwardDifference | AnalyticalSolution | EulerMethod}
 Zone Air Solution Algorithm, ThirdOrderBackwardDifference
! <Zone Air Carbon Dioxide Balance Simulation>, Simulation {Yes/No}, Carbon Dioxide Concentration
 Zone Air Carbon Dioxide Balance Simulation, No,N/A
! <Zone Air Generic Contaminant Balance Simulation>, Simulation {Yes/No}, Generic Contaminant Concentration
 Zone Air Generic Contaminant Balance Simulation, No,N/A
! <Zone Air Mass Flow Balance Simulation>, Enforce Mass Balance, Adjust Zone Mixing and Return {AdjustMixingOnly | AdjustReturnOnly | AdjustMixingThenReturn | AdjustReturnThenMixing | None}, Adjust Zone Infiltration {AddInfiltration | AdjustInfiltration | None}, Infiltration Zones {MixingSourceZonesOnly | AllZones}
 Zone Air Mass Flow Balance Simulation, No,N/A,N/A,N/A
! <HVACSystemRootFindingAlgorithm>, Value {RegulaFalsi | Bisection | BisectionThenRegulaFalsi | RegulaFalsiThenBisection}
 HVACSystemRootFindingAlgorithm, RegulaFalsi
! <Environment:Site Atmospheric Variation>,Wind Speed Profile Exponent {},Wind Speed Profile Boundary Layer Thickness {m},Air Temperature Gradient Coefficient {K/m}
Environment:Site Atmospheric Variation,0.330,460.000,6.500000E-003
! <Surface Geometry>,Starting Corner,Vertex Input Direction,Coordinate System,Daylight Reference Point Coordinate System,Rectangular (Simple) Surface Coordinate System
 Surface Geometry,UpperLeftCorner,Counterclockwise,RelativeCoordinateSystem,RelativeCoordinateSystem,RelativeToZoneOrigin
! <Surface Heat Transfer Algorithm>, Value {CTF - ConductionTransferFunction | EMPD - MoisturePenetrationDepthConductionTransferFunction | CondFD - ConductionFiniteDifference | HAMT - CombinedHeatAndMoistureFiniteElement} - Description,Inside Surface Max Temperature Limit{C}, Surface Convection Coefficient Lower Limit {W/m2-K}, Surface Convection Coefficient Upper Limit {W/m2-K}
Surface Heat Transfer Algorithm, CTF - ConductionTransferFunction,200,0.10,1000.0
! <Shading Summary>, Number of Fixed Detached Shades, Number of Building Detached Shades, Number of Attached Shades
 Shading Summary,0,0,0
! <Zone Summary>, Number of Zones, Number of Zone Surfaces, Number of SubSurfaces
 Zone Summary,55,687,57
! <Zone Information>,Zone Name,North Axis {deg},Origin X-Coordinate {m},Origin Y-Coordinate {m},Origin Z-Coordinate {m},Centroid X-Coordinate {m},Centroid Y-Coordinate {m},Centroid Z-Coordinate {m},Type,Zone Multiplier,Zone List Multiplier,Minimum X {m},Maximum X {m},Minimum Y {m},Maximum Y {m},Minimum Z {m},Maximum Z {m},Ceiling Height {m},Volume {m3},Zone Inside Convection Algorithm {Simple-Detailed-CeilingDiffuser-TrombeWall},Zone Outside Convection Algorithm {Simple-Detailed-Tarp-MoWitt-DOE-2-BLAST}, Floor Area {m2},Exterior Gross Wall Area {m2},Exterior Net Wall Area {m2},Exterior Window Area {m2}, Number of Surfaces, Number of SubSurfaces, Number of Shading SubSurfaces,  Part of Total Building Area
 Zone Information, BASEMENT ZN,0.0,0.00,0.00,0.00,-24.23,35.84,-1.22,1,1,1,-53.34,0.00,-9.80E-015,70.10,-2.44,0.00,2.44,9120.27,TARP,TARP,3739.35,0.00,0.00,0.00,19,0,0,Yes
 Zone Information, CORRIDOR_FLR_1 ZN,0.0,0.00,0.00,0.00,-26.67,34.29,2.13,1,1,1,-53.34,-5.32E-015,28.96,39.62,0.00,4.27,4.27,2428.80,TARP,TARP,569.03,91.07,83.26,0.00,9,4,0,Yes
 Zone Information, CORRIDOR_FLR_2 ZN,0.0,0.00,0.00,0.00,-26.67,34.29,6.40,1,1,1,-53.34,-5.32E-015,28.96,39.62,4.27,8.54,4.27,2428.80,TARP,TARP,569.03,91.07,91.07,0.00,12,0,0,Yes
 Zone Information, CORRIDOR_FLR_5 ZN,0.0,0.00,0.00,0.00,-34.06,19.94,19.21,1,1,1,-53.34,-1.68E-015,9.14,39.62,17.07,21.34,4.27,2141.31,TARP,TARP,501.68,273.21,273.21,0.00,19,0,0,Yes
 Zone Information, CORRIDOR_NW_FLR_3 ZN,0.0,0.00,0.00,0.00,-40.09,27.79,10.67,1,1,1,-53.34,-10.67,4.57,65.53,8.54,12.80,4.27,2418.88,TARP,TARP,566.71,409.81,409.81,0.00,25,0,0,Yes
 Zone Information, CORRIDOR_NW_FLR_4 ZN,0.0,0.00,0.00,0.00,-40.58,27.55,14.94,1,1,1,-53.34,-10.67,4.57,65.53,12.80,17.07,4.27,2418.88,TARP,TARP,566.71,409.81,409.81,0.00,22,0,0,Yes
 Zone Information, CORRIDOR_SE_FLR_3 ZN,0.0,0.00,0.00,0.00,-13.12,42.36,10.67,1,1,1,-42.67,-5.32E-015,4.57,65.53,8.54,12.80,4.27,2418.88,TARP,TARP,566.71,372.08,372.08,0.00,24,0,0,Yes
 Zone Information, CORRIDOR_SE_FLR_4 ZN,0.0,0.00,0.00,0.00,-13.09,42.13,14.94,1,1,1,-42.67,-5.32E-015,4.57,65.53,12.80,17.07,4.27,2418.88,TARP,TARP,566.71,372.08,372.08,0.00,25,0,0,Yes
 Zone Information, DINING_FLR_5 ZN,0.0,0.00,0.00,0.00,-11.74,54.87,19.21,1,1,1,-22.86,-7.28E-015,39.62,70.10,17.07,21.34,4.27,2974.04,TARP,TARP,696.77,227.67,191.91,35.76,13,1,0,Yes
 Zone Information, ER_EXAM1_MULT4_FLR_1 ZN,0.0,0.00,0.00,0.00,-2.29,42.67,2.13,1,4,1,-4.57,-7.28E-015,39.62,45.72,0.00,4.27,4.27,118.96,TARP,TARP,27.87,26.02,24.07,0.00,6,1,0,Yes
 Zone Information, ER_EXAM3_MULT4_FLR_1 ZN,0.0,0.00,0.00,0.00,-6.86,67.06,2.13,1,4,1,-9.14,-4.57,64.01,70.10,0.00,4.27,4.27,118.96,TARP,TARP,27.87,19.51,17.56,0.00,6,1,0,Yes
 Zone Information, ER_NURSESTN_LOBBY_FLR_1 ZN,0.0,0.00,0.00,0.00,-26.60,56.92,2.13,1,1,1,-48.77,-4.57,39.62,70.10,0.00,4.27,4.27,5273.96,TARP,TARP,1235.61,305.73,275.31,30.42,18,1,0,Yes
 Zone Information, ER_TRAUMA1_FLR_1 ZN,0.0,0.00,0.00,0.00,-2.29,67.06,2.13,1,1,1,-4.57,-1.18E-014,64.01,70.10,0.00,4.27,4.27,118.96,TARP,TARP,27.87,45.53,41.63,0.00,6,2,0,Yes
 Zone Information, ER_TRAUMA2_FLR_1 ZN,0.0,0.00,0.00,0.00,-51.05,67.06,2.13,1,1,1,-53.34,-48.77,64.01,70.10,0.00,4.27,4.27,118.96,TARP,TARP,27.87,45.53,41.63,0.00,6,2,0,Yes
 Zone Information, ER_TRIAGE_MULT4_FLR_1 ZN,0.0,0.00,0.00,0.00,-51.05,42.67,2.13,1,4,1,-53.34,-48.77,39.62,45.72,0.00,4.27,4.27,118.96,TARP,TARP,27.87,26.02,24.07,0.00,6,1,0,Yes
 Zone Information, ICU_FLR_2 ZN,0.0,0.00,0.00,0.00,-9.14,14.21,6.40,1,1,1,-21.34,0.00,-3.92E-015,28.96,4.27,8.54,4.27,2637.66,TARP,TARP,617.96,214.68,189.65,25.03,16,1,0,Yes
 Zone Information, ICU_NURSESTN_LOBBY_FLR_2 ZN,0.0,0.00,0.00,0.00,-34.59,16.42,6.40,1,1,1,-48.77,-21.34,4.57,28.96,4.27,8.54,4.27,2854.50,TARP,TARP,668.77,175.61,175.61,0.00,11,0,0,Yes
 Zone Information, IC_PATROOM1_MULT5_FLR_2 ZN,0.0,0.00,0.00,0.00,-51.05,26.67,6.40,1,5,1,-53.34,-48.77,24.38,28.96,4.27,8.54,4.27,89.22,TARP,TARP,20.90,19.51,14.61,4.91,6,1,0,Yes
 Zone Information, IC_PATROOM2_FLR_2 ZN,0.0,0.00,0.00,0.00,-51.05,3.05,6.40,1,1,1,-53.34,-48.77,-9.80E-015,6.10,4.27,8.54,4.27,118.96,TARP,TARP,27.87,45.53,34.09,11.44,7,2,0,Yes
 Zone Information, IC_PATROOM3_MULT6_FLR_2 ZN,0.0,0.00,0.00,0.00,-46.48,2.29,6.40,1,6,1,-48.77,-44.20,-8.96E-015,4.57,4.27,8.54,4.27,89.22,TARP,TARP,20.90,19.51,14.61,4.91,6,1,0,Yes
 Zone Information, KITCHEN_FLR_5 ZN,0.0,0.00,0.00,0.00,-38.10,54.86,19.21,1,1,1,-53.34,-22.86,39.62,70.10,17.07,21.34,4.27,3965.38,TARP,TARP,929.03,260.20,260.20,0.00,13,0,0,Yes
 Zone Information, LAB_FLR_3 ZN,0.0,0.00,0.00,0.00,-20.39,16.93,10.67,1,1,1,-33.53,-10.67,9.14,28.96,8.54,12.80,4.27,1130.13,TARP,TARP,264.77,0.00,0.00,0.00,9,0,0,Yes
 Zone Information, LAB_FLR_4 ZN,0.0,0.00,0.00,0.00,-20.01,17.13,14.94,1,1,1,-33.53,-10.67,9.14,28.96,12.80,17.07,4.27,1130.13,TARP,TARP,264.77,0.00,0.00,0.00,9,0,0,Yes
 Zone Information, LOBBY_RECORDS_FLR_1 ZN,0.0,0.00,0.00,0.00,-21.30,14.26,2.13,1,1,1,-53.34,0.00,-9.80E-015,28.96,0.00,4.27,4.27,6294.93,TARP,TARP,1474.81,461.85,382.03,62.63,18,7,0,Yes
 Zone Information, NURSESTN_LOBBY_FLR_3 ZN,0.0,0.00,0.00,0.00,-25.67,31.73,10.67,1,1,1,-42.67,-10.67,9.14,60.96,8.54,12.80,4.27,3866.25,TARP,TARP,905.80,0.00,0.00,0.00,15,0,0,Yes
 Zone Information, NURSESTN_LOBBY_FLR_4 ZN,0.0,0.00,0.00,0.00,-24.58,31.97,14.94,1,1,1,-42.67,-10.67,9.14,60.96,12.80,17.07,4.27,3866.25,TARP,TARP,905.80,0.00,0.00,0.00,14,0,0,Yes
 Zone Information, NURSESTN_LOBBY_FLR_5 ZN,0.0,0.00,0.00,0.00,-20.14,27.22,19.21,1,1,1,-42.67,-2.80E-015,15.24,39.62,17.07,21.34,4.27,4441.23,TARP,TARP,1040.51,104.08,104.08,0.00,10,0,0,Yes
 Zone Information, OFFICE1_FLR_5 ZN,0.0,0.00,0.00,0.00,-3.81,4.57,19.21,1,1,1,-7.62,0.00,-1.40E-015,9.14,17.07,21.34,4.27,297.48,TARP,TARP,69.70,71.56,53.58,17.98,9,2,0,Yes
 Zone Information, OFFICE1_MULT4_FLR_1 ZN,0.0,0.00,0.00,0.00,-2.29,7.62,2.13,1,5,1,-4.57,-1.12E-015,6.10,9.14,0.00,4.27,4.27,59.48,TARP,TARP,13.94,13.01,10.05,2.96,6,1,0,Yes
 Zone Information, OFFICE2_MULT5_FLR_5 ZN,0.0,0.00,0.00,0.00,-11.43,4.57,19.21,1,5,1,-15.24,-7.62,-2.80E-015,9.14,17.07,21.34,4.27,297.33,TARP,TARP,69.66,32.52,24.34,8.17,9,1,0,Yes
 Zone Information, OFFICE3_FLR_5 ZN,0.0,0.00,0.00,0.00,-49.53,4.57,19.21,1,1,1,-53.34,-45.72,-9.80E-015,9.14,17.07,21.34,4.27,297.40,TARP,TARP,69.68,71.55,53.57,17.98,10,2,0,Yes
 Zone Information, OFFICE4_MULT6_FLR_5 ZN,0.0,0.00,0.00,0.00,-51.05,10.67,19.21,1,6,1,-53.34,-48.77,9.14,12.19,17.07,21.34,4.27,59.48,TARP,TARP,13.94,13.01,10.05,2.96,6,1,0,Yes
 Zone Information, OR1_FLR_2 ZN,0.0,0.00,0.00,0.00,-50.29,65.53,6.40,1,1,1,-53.34,-47.24,60.96,70.10,4.27,8.54,4.27,237.92,TARP,TARP,55.74,65.05,65.05,0.00,12,0,0,Yes
 Zone Information, OR2_MULT5_FLR_2 ZN,0.0,0.00,0.00,0.00,-44.20,65.53,6.40,1,5,1,-47.24,-41.15,60.96,70.10,4.27,8.54,4.27,237.92,TARP,TARP,55.74,26.02,26.02,0.00,9,0,0,Yes
 Zone Information, OR3_FLR_2 ZN,0.0,0.00,0.00,0.00,-50.29,44.20,6.40,1,1,1,-53.34,-47.24,39.62,48.77,4.27,8.54,4.27,237.92,TARP,TARP,55.74,39.03,39.03,0.00,10,0,0,Yes
 Zone Information, OR4_FLR_2 ZN,0.0,0.00,0.00,0.00,-35.05,44.20,6.40,1,1,1,-47.24,-22.86,39.62,48.77,4.27,8.54,4.27,951.69,TARP,TARP,222.97,0.00,0.00,0.00,7,0,0,Yes
 Zone Information, OR_NURSESTN_LOBBY_FLR_2 ZN,0.0,0.00,0.00,0.00,-20.88,54.94,6.40,1,1,1,-53.34,-7.28E-015,39.62,70.10,4.27,8.54,4.27,4322.26,TARP,TARP,1012.64,357.77,322.01,35.76,28,1,0,Yes
 Zone Information, PATROOM1_MULT10_FLR_3 ZN,0.0,0.00,0.00,0.00,-2.29,41.91,10.67,1,10,1,-4.57,-7.28E-015,39.62,44.20,8.54,12.80,4.27,89.22,TARP,TARP,20.90,19.51,14.61,4.91,6,1,0,Yes
 Zone Information, PATROOM1_MULT10_FLR_4 ZN,0.0,0.00,0.00,0.00,-2.29,41.91,14.94,1,10,1,-4.57,-7.28E-015,39.62,44.20,12.80,17.07,4.27,89.22,TARP,TARP,20.90,19.51,14.61,4.91,6,1,0,Yes
 Zone Information, PATROOM2_FLR_3 ZN,0.0,0.00,0.00,0.00,-2.29,66.29,10.67,1,1,1,-4.57,-1.15E-014,62.48,70.10,8.54,12.80,4.27,148.70,TARP,TARP,34.84,52.04,38.96,13.08,7,2,0,Yes
 Zone Information, PATROOM2_FLR_4 ZN,0.0,0.00,0.00,0.00,-2.29,66.29,14.94,1,1,1,-4.57,-1.15E-014,62.48,70.10,12.80,17.07,4.27,148.70,TARP,TARP,34.84,52.04,38.96,13.08,7,2,0,Yes
 Zone Information, PATROOM3_MULT10_FLR_3 ZN,0.0,0.00,0.00,0.00,-6.78,67.82,10.67,1,10,1,-8.99,-4.57,65.53,70.10,8.54,12.80,4.27,86.25,TARP,TARP,20.21,18.87,14.13,4.74,6,1,0,Yes
 Zone Information, PATROOM3_MULT10_FLR_4 ZN,0.0,0.00,0.00,0.00,-6.78,67.82,14.94,1,10,1,-8.99,-4.57,65.53,70.10,12.80,17.07,4.27,86.25,TARP,TARP,20.21,18.87,14.13,4.74,6,1,0,Yes
 Zone Information, PATROOM4_FLR_3 ZN,0.0,0.00,0.00,0.00,-51.05,66.29,10.67,1,1,1,-53.34,-48.77,62.48,70.10,8.54,12.80,4.27,148.70,TARP,TARP,34.84,52.04,38.96,13.08,7,2,0,Yes
 Zone Information, PATROOM4_FLR_4 ZN,0.0,0.00,0.00,0.00,-51.05,66.29,14.94,1,1,1,-53.34,-48.77,62.48,70.10,12.80,17.07,4.27,148.70,TARP,TARP,34.84,52.04,38.96,13.08,7,2,0,Yes
 Zone Information, PATROOM5_MULT10_FLR_3 ZN,0.0,0.00,0.00,0.00,-51.05,41.91,10.67,1,10,1,-53.34,-48.77,39.62,44.20,8.54,12.80,4.27,89.22,TARP,TARP,20.90,19.51,14.61,4.91,6,1,0,Yes
 Zone Information, PATROOM5_MULT10_FLR_4 ZN,0.0,0.00,0.00,0.00,-51.05,41.91,14.94,1,10,1,-53.34,-48.77,39.62,44.20,12.80,17.07,4.27,89.22,TARP,TARP,20.90,19.51,14.61,4.91,6,1,0,Yes
 Zone Information, PATROOM6_FLR_3 ZN,0.0,0.00,0.00,0.00,-2.29,3.05,10.67,1,1,1,-4.57,0.00,-8.40E-016,6.10,8.54,12.80,4.27,118.96,TARP,TARP,27.87,45.53,34.09,11.44,7,2,0,Yes
 Zone Information, PATROOM6_FLR_4 ZN,0.0,0.00,0.00,0.00,-2.29,3.05,14.94,1,1,1,-4.57,0.00,-8.40E-016,6.10,12.80,17.07,4.27,118.96,TARP,TARP,27.87,45.53,34.09,11.44,7,2,0,Yes
 Zone Information, PATROOM7_MULT10_FLR_3 ZN,0.0,0.00,0.00,0.00,-6.78,2.29,10.67,1,10,1,-8.99,-4.57,-1.65E-015,4.57,8.54,12.80,4.27,86.25,TARP,TARP,20.21,18.87,14.13,4.74,6,1,0,Yes
 Zone Information, PATROOM7_MULT10_FLR_4 ZN,0.0,0.00,0.00,0.00,-6.78,2.29,14.94,1,10,1,-8.99,-4.57,-1.65E-015,4.57,12.80,17.07,4.27,86.25,TARP,TARP,20.21,18.87,14.13,4.74,7,1,0,Yes
 Zone Information, PATROOM8_FLR_3 ZN,0.0,0.00,0.00,0.00,-51.05,3.05,10.67,1,1,1,-53.34,-48.77,-9.80E-015,6.10,8.54,12.80,4.27,118.96,TARP,TARP,27.87,45.53,34.09,11.44,7,2,0,Yes
 Zone Information, PATROOM8_FLR_4 ZN,0.0,0.00,0.00,0.00,-51.05,3.05,14.94,1,1,1,-53.34,-48.77,-9.80E-015,6.10,12.80,17.07,4.27,118.96,TARP,TARP,27.87,45.53,34.09,11.44,7,2,0,Yes
 Zone Information, PHYSTHERAPY_FLR_3 ZN,0.0,0.00,0.00,0.00,-30.81,49.36,10.67,1,1,1,-42.67,-19.81,39.62,60.96,8.54,12.80,4.27,2081.82,TARP,TARP,487.74,0.00,0.00,0.00,7,0,0,Yes
 Zone Information, RADIOLOGY_FLR_4 ZN,0.0,0.00,0.00,0.00,-31.24,50.29,14.94,1,1,1,-42.67,-19.81,39.62,60.96,12.80,17.07,4.27,2081.82,TARP,TARP,487.74,0.00,0.00,0.00,7,0,0,Yes
! <Zone Internal Gains Nominal>,Zone Name, Floor Area {m2},# Occupants,Area per Occupant {m2/person},Occupant per Area {person/m2},Interior Lighting {W/m2},Electric Load {W/m2},Gas Load {W/m2},Other Load {W/m2},Hot Water Eq {W/m2},Steam Equipment {W/m2},Sum Loads per Area {W/m2},Outdoor Controlled Baseboard Heat
 Zone Internal Gains Nominal, BASEMENT ZN,3739.35,100.6,37.161,2.691E-002,9.688,8.073,0.000,0.000,0.000,0.000,17.760,No
 Zone Internal Gains Nominal, CORRIDOR_FLR_1 ZN,569.03,6.1,92.903,1.076E-002,9.580,0.000,0.000,0.000,0.000,0.000,9.580,No
 Zone Internal Gains Nominal, CORRIDOR_FLR_2 ZN,569.03,6.1,92.903,1.076E-002,9.580,0.000,0.000,0.000,0.000,0.000,9.580,No
 Zone Internal Gains Nominal, CORRIDOR_FLR_5 ZN,501.68,5.4,92.903,1.076E-002,9.580,0.000,0.000,0.000,0.000,0.000,9.580,No
 Zone Internal Gains Nominal, CORRIDOR_NW_FLR_3 ZN,566.71,6.1,92.903,1.076E-002,9.580,0.000,0.000,0.000,0.000,0.000,9.580,No
 Zone Internal Gains Nominal, CORRIDOR_NW_FLR_4 ZN,566.71,6.1,92.903,1.076E-002,9.580,0.000,0.000,0.000,0.000,0.000,9.580,No
 Zone Internal Gains Nominal, CORRIDOR_SE_FLR_3 ZN,566.71,6.1,92.903,1.076E-002,9.580,0.000,0.000,0.000,0.000,0.000,9.580,No
 Zone Internal Gains Nominal, CORRIDOR_SE_FLR_4 ZN,566.71,6.1,92.903,1.076E-002,9.580,0.000,0.000,0.000,0.000,0.000,9.580,No
 Zone Internal Gains Nominal, DINING_FLR_5 ZN,696.77,75.0,9.290,0.108,6.997,10.764,0.000,0.000,0.000,0.000,17.760,No
 Zone Internal Gains Nominal, ER_EXAM1_MULT4_FLR_1 ZN,27.87,6.0,4.645,0.215,24.326,16.146,0.000,0.000,0.000,0.000,40.472,No
 Zone Internal Gains Nominal, ER_EXAM3_MULT4_FLR_1 ZN,27.87,6.0,4.645,0.215,24.326,16.146,0.000,0.000,0.000,0.000,40.472,No
 Zone Internal Gains Nominal, ER_NURSESTN_LOBBY_FLR_1 ZN,1235.61,17.7,69.695,1.435E-002,9.365,14.639,0.000,0.000,0.000,0.000,24.004,No
 Zone Internal Gains Nominal, ER_TRAUMA1_FLR_1 ZN,27.87,6.0,4.645,0.215,24.326,43.056,0.000,0.000,0.000,0.000,67.382,No
 Zone Internal Gains Nominal, ER_TRAUMA2_FLR_1 ZN,27.87,6.0,4.645,0.215,24.326,43.056,0.000,0.000,0.000,0.000,67.382,No
 Zone Internal Gains Nominal, ER_TRIAGE_MULT4_FLR_1 ZN,27.87,6.0,4.645,0.215,24.326,21.528,0.000,0.000,0.000,0.000,45.854,No
 Zone Internal Gains Nominal, ICU_FLR_2 ZN,617.96,33.3,18.581,5.382E-002,12.378,32.292,0.000,0.000,0.000,0.000,44.670,No
 Zone Internal Gains Nominal, ICU_NURSESTN_LOBBY_FLR_2 ZN,668.77,9.6,69.695,1.435E-002,9.365,21.528,0.000,0.000,0.000,0.000,30.892,No
 Zone Internal Gains Nominal, IC_PATROOM1_MULT5_FLR_2 ZN,20.90,1.1,18.581,5.382E-002,6.674,32.292,0.000,0.000,0.000,0.000,38.965,No
 Zone Internal Gains Nominal, IC_PATROOM2_FLR_2 ZN,27.87,1.5,18.581,5.382E-002,6.674,32.292,0.000,0.000,0.000,0.000,38.965,No
 Zone Internal Gains Nominal, IC_PATROOM3_MULT6_FLR_2 ZN,20.90,1.1,18.581,5.382E-002,6.674,32.292,0.000,0.000,0.000,0.000,38.965,No
 Zone Internal Gains Nominal, KITCHEN_FLR_5 ZN,929.03,50.0,18.581,5.382E-002,10.656,83.215,161.389,0.000,0.000,0.000,255.260,No
 Zone Internal Gains Nominal, LAB_FLR_3 ZN,264.77,14.3,18.581,5.382E-002,19.483,43.056,0.000,0.000,0.000,0.000,62.538,No
 Zone Internal Gains Nominal, LAB_FLR_4 ZN,264.77,14.3,18.581,5.382E-002,19.483,43.056,0.000,0.000,0.000,0.000,62.538,No
 Zone Internal Gains Nominal, LOBBY_RECORDS_FLR_1 ZN,1474.81,21.2,69.695,1.435E-002,9.688,1.076,0.000,0.000,0.000,0.000,10.764,No
 Zone Internal Gains Nominal, NURSESTN_LOBBY_FLR_3 ZN,905.80,13.0,69.695,1.435E-002,9.365,11.194,0.000,0.000,0.000,0.000,20.559,No
 Zone Internal Gains Nominal, NURSESTN_LOBBY_FLR_4 ZN,905.80,13.0,69.695,1.435E-002,9.365,11.194,0.000,0.000,0.000,0.000,20.559,No
 Zone Internal Gains Nominal, NURSESTN_LOBBY_FLR_5 ZN,1040.51,14.9,69.695,1.435E-002,9.365,11.194,0.000,0.000,0.000,0.000,20.559,No
 Zone Internal Gains Nominal, OFFICE1_FLR_5 ZN,69.70,5.3,13.272,7.535E-002,9.688,10.764,0.000,0.000,0.000,0.000,20.451,No
 Zone Internal Gains Nominal, OFFICE1_MULT4_FLR_1 ZN,13.94,1.1,13.272,7.535E-002,9.688,10.764,0.000,0.000,0.000,0.000,20.451,No
 Zone Internal Gains Nominal, OFFICE2_MULT5_FLR_5 ZN,69.66,5.2,13.272,7.535E-002,9.688,10.764,0.000,0.000,0.000,0.000,20.451,No
 Zone Internal Gains Nominal, OFFICE3_FLR_5 ZN,69.68,5.3,13.272,7.535E-002,9.688,10.764,0.000,0.000,0.000,0.000,20.451,No
 Zone Internal Gains Nominal, OFFICE4_MULT6_FLR_5 ZN,13.94,1.1,13.272,7.535E-002,9.688,10.764,0.000,0.000,0.000,0.000,20.451,No
 Zone Internal Gains Nominal, OR1_FLR_2 ZN,55.74,3.0,18.581,5.382E-002,20.344,43.056,0.000,0.000,0.000,0.000,63.399,No
 Zone Internal Gains Nominal, OR2_MULT5_FLR_2 ZN,55.74,3.0,18.581,5.382E-002,20.344,43.056,0.000,0.000,0.000,0.000,63.399,No
 Zone Internal Gains Nominal, OR3_FLR_2 ZN,55.74,3.0,18.581,5.382E-002,20.344,43.056,0.000,0.000,0.000,0.000,63.399,No
 Zone Internal Gains Nominal, OR4_FLR_2 ZN,222.97,12.0,18.581,5.382E-002,20.344,43.056,0.000,0.000,0.000,0.000,63.399,No
 Zone Internal Gains Nominal, OR_NURSESTN_LOBBY_FLR_2 ZN,1012.64,14.5,69.695,1.435E-002,9.365,11.194,0.000,0.000,0.000,0.000,20.559,No
 Zone Internal Gains Nominal, PATROOM1_MULT10_FLR_3 ZN,20.90,1.1,18.581,5.382E-002,6.674,21.528,0.000,0.000,0.000,0.000,28.201,No
 Zone Internal Gains Nominal, PATROOM1_MULT10_FLR_4 ZN,20.90,1.1,18.581,5.382E-002,6.674,21.528,0.000,0.000,0.000,0.000,28.201,No
 Zone Internal Gains Nominal, PATROOM2_FLR_3 ZN,34.84,1.9,18.581,5.382E-002,6.674,21.528,0.000,0.000,0.000,0.000,28.201,No
 Zone Internal Gains Nominal, PATROOM2_FLR_4 ZN,34.84,1.9,18.581,5.382E-002,6.674,21.528,0.000,0.000,0.000,0.000,28.201,No
 Zone Internal Gains Nominal, PATROOM3_MULT10_FLR_3 ZN,20.21,1.1,18.581,5.382E-002,6.674,21.528,0.000,0.000,0.000,0.000,28.201,No
 Zone Internal Gains Nominal, PATROOM3_MULT10_FLR_4 ZN,20.21,1.1,18.581,5.382E-002,6.674,21.528,0.000,0.000,0.000,0.000,28.201,No
 Zone Internal Gains Nominal, PATROOM4_FLR_3 ZN,34.84,1.9,18.581,5.382E-002,6.674,21.528,0.000,0.000,0.000,0.000,28.201,No
 Zone Internal Gains Nominal, PATROOM4_FLR_4 ZN,34.84,1.9,18.581,5.382E-002,6.674,21.528,0.000,0.000,0.000,0.000,28.201,No
 Zone Internal Gains Nominal, PATROOM5_MULT10_FLR_3 ZN,20.90,1.1,18.581,5.382E-002,6.674,21.528,0.000,0.000,0.000,0.000,28.201,No
 Zone Internal Gains Nominal, PATROOM5_MULT10_FLR_4 ZN,20.90,1.1,18.581,5.382E-002,6.674,21.528,0.000,0.000,0.000,0.000,28.201,No
 Zone Internal Gains Nominal, PATROOM6_FLR_3 ZN,27.87,1.5,18.581,5.382E-002,6.674,21.528,0.000,0.000,0.000,0.000,28.201,No
 Zone Internal Gains Nominal, PATROOM6_FLR_4 ZN,27.87,1.5,18.581,5.382E-002,6.674,21.528,0.000,0.000,0.000,0.000,28.201,No
 Zone Internal Gains Nominal, PATROOM7_MULT10_FLR_3 ZN,20.21,1.1,18.581,5.382E-002,6.674,21.528,0.000,0.000,0.000,0.000,28.201,No
 Zone Internal Gains Nominal, PATROOM7_MULT10_FLR_4 ZN,20.21,1.1,18.581,5.382E-002,6.674,21.528,0.000,0.000,0.000,0.000,28.201,No
 Zone Internal Gains Nominal, PATROOM8_FLR_3 ZN,27.87,1.5,18.581,5.382E-002,6.674,21.528,0.000,0.000,0.000,0.000,28.201,No
 Zone Internal Gains Nominal, PATROOM8_FLR_4 ZN,27.87,1.5,18.581,5.382E-002,6.674,21.528,0.000,0.000,0.000,0.000,28.201,No
 Zone Internal Gains Nominal, PHYSTHERAPY_FLR_3 ZN,487.74,26.2,18.581,5.382E-002,9.795,16.146,0.000,0.000,0.000,0.000,25.941,No
 Zone Internal Gains Nominal, RADIOLOGY_FLR_4 ZN,487.74,26.2,18.581,5.382E-002,14.208,107.639,0.000,0.000,0.000,0.000,121.847,No
! <People Internal Gains Nominal>,Name,Schedule Name,Zone Name,Zone Floor Area {m2},# Zone Occupants,Number of People {},People/Floor Area {person/m2},Floor Area per person {m2/person},Fraction Radiant,Fraction Convected,Sensible Fraction Calculation,Activity level,ASHRAE 55 Warnings,Carbon Dioxide Generation Rate,Nominal Minimum Number of People,Nominal Maximum Number of People
 People Internal Gains Nominal, BASEMENT ZN HOSPITAL BASEMENT PEOPLE,HOSPITAL BLDG_OCC_SCH,BASEMENT ZN,3739.35,100.6,100.6,2.691E-002,37.161,0.300,0.700,AutoCalculate,HOSPITAL ACTIVITY_SCH,No,3.8200E-008,0,101
 People Internal Gains Nominal, CORRIDOR_FLR_1 ZN HOSPITAL CORRIDOR PEOPLE,HOSPITAL BLDG_OCC_EXTD_SCH,CORRIDOR_FLR_1 ZN,569.03,6.1,6.1,1.076E-002,92.903,0.300,0.700,AutoCalculate,HOSPITAL ACTIVITY_SCH,No,3.8200E-008,0,6
 People Internal Gains Nominal, CORRIDOR_FLR_2 ZN HOSPITAL CORRIDOR PEOPLE,HOSPITAL BLDG_OCC_EXTD_SCH,CORRIDOR_FLR_2 ZN,569.03,6.1,6.1,1.076E-002,92.903,0.300,0.700,AutoCalculate,HOSPITAL ACTIVITY_SCH,No,3.8200E-008,0,6
 People Internal Gains Nominal, CORRIDOR_FLR_5 ZN HOSPITAL CORRIDOR PEOPLE,HOSPITAL BLDG_OCC_EXTD_SCH,CORRIDOR_FLR_5 ZN,501.68,5.4,5.4,1.076E-002,92.903,0.300,0.700,AutoCalculate,HOSPITAL ACTIVITY_SCH,No,3.8200E-008,0,5
 People Internal Gains Nominal, CORRIDOR_NW_FLR_3 ZN HOSPITAL CORRIDOR PEOPLE,HOSPITAL BLDG_OCC_EXTD_SCH,CORRIDOR_NW_FLR_3 ZN,566.71,6.1,6.1,1.076E-002,92.903,0.300,0.700,AutoCalculate,HOSPITAL ACTIVITY_SCH,No,3.8200E-008,0,6
 People Internal Gains Nominal, CORRIDOR_NW_FLR_4 ZN HOSPITAL CORRIDOR PEOPLE,HOSPITAL BLDG_OCC_EXTD_SCH,CORRIDOR_NW_FLR_4 ZN,566.71,6.1,6.1,1.076E-002,92.903,0.300,0.700,AutoCalculate,HOSPITAL ACTIVITY_SCH,No,3.8200E-008,0,6
 People Internal Gains Nominal, CORRIDOR_SE_FLR_3 ZN HOSPITAL CORRIDOR PEOPLE,HOSPITAL BLDG_OCC_EXTD_SCH,CORRIDOR_SE_FLR_3 ZN,566.71,6.1,6.1,1.076E-002,92.903,0.300,0.700,AutoCalculate,HOSPITAL ACTIVITY_SCH,No,3.8200E-008,0,6
 People Internal Gains Nominal, CORRIDOR_SE_FLR_4 ZN HOSPITAL CORRIDOR PEOPLE,HOSPITAL BLDG_OCC_EXTD_SCH,CORRIDOR_SE_FLR_4 ZN,566.71,6.1,6.1,1.076E-002,92.903,0.300,0.700,AutoCalculate,HOSPITAL ACTIVITY_SCH,No,3.8200E-008,0,6
 People Internal Gains Nominal, DINING_FLR_5 ZN HOSPITAL DINING PEOPLE,HOSPITAL BLDG_OCC_EXTD_SCH,DINING_FLR_5 ZN,696.77,75.0,75.0,0.108,9.290,0.300,0.700,AutoCalculate,HOSPITAL ACTIVITY_SCH,No,3.8200E-008,0,75
 People Internal Gains Nominal, ER_EXAM1_MULT4_FLR_1 ZN HOSPITAL ER_EXAM PEOPLE,HOSPITAL BLDG_OCC_EXTD_SCH,ER_EXAM1_MULT4_FLR_1 ZN,27.87,6.0,6.0,0.215,4.645,0.300,0.700,AutoCalculate,HOSPITAL ACTIVITY_SCH,No,3.8200E-008,0,6
 People Internal Gains Nominal, ER_EXAM3_MULT4_FLR_1 ZN HOSPITAL ER_EXAM PEOPLE,HOSPITAL BLDG_OCC_EXTD_SCH,ER_EXAM3_MULT4_FLR_1 ZN,27.87,6.0,6.0,0.215,4.645,0.300,0.700,AutoCalculate,HOSPITAL ACTIVITY_SCH,No,3.8200E-008,0,6
 People Internal Gains Nominal, ER_NURSESTN_LOBBY_FLR_1 ZN HOSPITAL ER_NURSESTN PEOPLE,HOSPITAL BLDG_OCC_EXTD_SCH,ER_NURSESTN_LOBBY_FLR_1 ZN,1235.61,17.7,17.7,1.435E-002,69.695,0.300,0.700,AutoCalculate,HOSPITAL ACTIVITY_SCH,No,3.8200E-008,0,18
 People Internal Gains Nominal, ER_TRAUMA1_FLR_1 ZN HOSPITAL ER_TRAUMA PEOPLE,HOSPITAL BLDG_OCC_EXTD_SCH,ER_TRAUMA1_FLR_1 ZN,27.87,6.0,6.0,0.215,4.645,0.300,0.700,AutoCalculate,HOSPITAL ACTIVITY_SCH,No,3.8200E-008,0,6
 People Internal Gains Nominal, ER_TRAUMA2_FLR_1 ZN HOSPITAL ER_TRAUMA PEOPLE,HOSPITAL BLDG_OCC_EXTD_SCH,ER_TRAUMA2_FLR_1 ZN,27.87,6.0,6.0,0.215,4.645,0.300,0.700,AutoCalculate,HOSPITAL ACTIVITY_SCH,No,3.8200E-008,0,6
 People Internal Gains Nominal, ER_TRIAGE_MULT4_FLR_1 ZN HOSPITAL ER_TRIAGE PEOPLE,HOSPITAL BLDG_OCC_EXTD_SCH,ER_TRIAGE_MULT4_FLR_1 ZN,27.87,6.0,6.0,0.215,4.645,0.300,0.700,AutoCalculate,HOSPITAL ACTIVITY_SCH,No,3.8200E-008,0,6
 People Internal Gains Nominal, ICU_NURSESTN_LOBBY_FLR_2 ZN HOSPITAL ICU_NURSESTN PEOPLE,HOSPITAL BLDG_OCC_EXTD_SCH,ICU_NURSESTN_LOBBY_FLR_2 ZN,668.77,9.6,9.6,1.435E-002,69.695,0.300,0.700,AutoCalculate,HOSPITAL ACTIVITY_SCH,No,3.8200E-008,0,10
 People Internal Gains Nominal, ICU_FLR_2 ZN HOSPITAL ICU_OPEN PEOPLE,HOSPITAL BLDG_OCC_EXTD_SCH,ICU_FLR_2 ZN,617.96,33.3,33.3,5.382E-002,18.581,0.300,0.700,AutoCalculate,HOSPITAL ACTIVITY_SCH,No,3.8200E-008,0,33
 People Internal Gains Nominal, IC_PATROOM1_MULT5_FLR_2 ZN HOSPITAL ICU_PATRM PEOPLE,HOSPITAL BLDG_OCC_EXTD_SCH,IC_PATROOM1_MULT5_FLR_2 ZN,20.90,1.1,1.1,5.382E-002,18.581,0.300,0.700,AutoCalculate,HOSPITAL ACTIVITY_SCH,No,3.8200E-008,0,1
 People Internal Gains Nominal, IC_PATROOM2_FLR_2 ZN HOSPITAL ICU_PATRM PEOPLE,HOSPITAL BLDG_OCC_EXTD_SCH,IC_PATROOM2_FLR_2 ZN,27.87,1.5,1.5,5.382E-002,18.581,0.300,0.700,AutoCalculate,HOSPITAL ACTIVITY_SCH,No,3.8200E-008,0,2
 People Internal Gains Nominal, IC_PATROOM3_MULT6_FLR_2 ZN HOSPITAL ICU_PATRM PEOPLE,HOSPITAL BLDG_OCC_EXTD_SCH,IC_PATROOM3_MULT6_FLR_2 ZN,20.90,1.1,1.1,5.382E-002,18.581,0.300,0.700,AutoCalculate,HOSPITAL ACTIVITY_SCH,No,3.8200E-008,0,1
 People Internal Gains Nominal, KITCHEN_FLR_5 ZN HOSPITAL KITCHEN PEOPLE,HOSPITAL BLDG_OCC_EXTD_SCH,KITCHEN_FLR_5 ZN,929.03,50.0,50.0,5.382E-002,18.581,0.300,0.700,AutoCalculate,HOSPITAL ACTIVITY_SCH,No,3.8200E-008,0,50
 People Internal Gains Nominal, LAB_FLR_3 ZN HOSPITAL LAB PEOPLE,HOSPITAL BLDG_OCC_SCH,LAB_FLR_3 ZN,264.77,14.3,14.3,5.382E-002,18.581,0.300,0.700,AutoCalculate,HOSPITAL ACTIVITY_SCH,No,3.8200E-008,0,14
 People Internal Gains Nominal, LAB_FLR_4 ZN HOSPITAL LAB PEOPLE,HOSPITAL BLDG_OCC_SCH,LAB_FLR_4 ZN,264.77,14.3,14.3,5.382E-002,18.581,0.300,0.700,AutoCalculate,HOSPITAL ACTIVITY_SCH,No,3.8200E-008,0,14
 People Internal Gains Nominal, LOBBY_RECORDS_FLR_1 ZN HOSPITAL LOBBY PEOPLE,HOSPITAL BLDG_OCC_SCH,LOBBY_RECORDS_FLR_1 ZN,1474.81,21.2,21.2,1.435E-002,69.695,0.300,0.700,AutoCalculate,HOSPITAL ACTIVITY_SCH,No,3.8200E-008,0,21
 People Internal Gains Nominal, NURSESTN_LOBBY_FLR_3 ZN HOSPITAL NURSESTN PEOPLE,HOSPITAL BLDG_OCC_EXTD_SCH,NURSESTN_LOBBY_FLR_3 ZN,905.80,13.0,13.0,1.435E-002,69.695,0.300,0.700,AutoCalculate,HOSPITAL ACTIVITY_SCH,No,3.8200E-008,0,13
 People Internal Gains Nominal, NURSESTN_LOBBY_FLR_4 ZN HOSPITAL NURSESTN PEOPLE,HOSPITAL BLDG_OCC_EXTD_SCH,NURSESTN_LOBBY_FLR_4 ZN,905.80,13.0,13.0,1.435E-002,69.695,0.300,0.700,AutoCalculate,HOSPITAL ACTIVITY_SCH,No,3.8200E-008,0,13
 People Internal Gains Nominal, NURSESTN_LOBBY_FLR_5 ZN HOSPITAL NURSESTN PEOPLE,HOSPITAL BLDG_OCC_EXTD_SCH,NURSESTN_LOBBY_FLR_5 ZN,1040.51,14.9,14.9,1.435E-002,69.695,0.300,0.700,AutoCalculate,HOSPITAL ACTIVITY_SCH,No,3.8200E-008,0,15
 People Internal Gains Nominal, OR_NURSESTN_LOBBY_FLR_2 ZN HOSPITAL NURSESTN PEOPLE,HOSPITAL BLDG_OCC_EXTD_SCH,OR_NURSESTN_LOBBY_FLR_2 ZN,1012.64,14.5,14.5,1.435E-002,69.695,0.300,0.700,AutoCalculate,HOSPITAL ACTIVITY_SCH,No,3.8200E-008,0,15
 People Internal Gains Nominal, OFFICE1_FLR_5 ZN HOSPITAL OFFICE PEOPLE,HOSPITAL BLDG_OCC_SCH,OFFICE1_FLR_5 ZN,69.70,5.3,5.3,7.535E-002,13.272,0.300,0.700,AutoCalculate,HOSPITAL ACTIVITY_SCH,No,3.8200E-008,0,5
 People Internal Gains Nominal, OFFICE1_MULT4_FLR_1 ZN HOSPITAL OFFICE PEOPLE,HOSPITAL BLDG_OCC_SCH,OFFICE1_MULT4_FLR_1 ZN,13.94,1.1,1.1,7.535E-002,13.272,0.300,0.700,AutoCalculate,HOSPITAL ACTIVITY_SCH,No,3.8200E-008,0,1
 People Internal Gains Nominal, OFFICE2_MULT5_FLR_5 ZN HOSPITAL OFFICE PEOPLE,HOSPITAL BLDG_OCC_SCH,OFFICE2_MULT5_FLR_5 ZN,69.66,5.2,5.2,7.535E-002,13.272,0.300,0.700,AutoCalculate,HOSPITAL ACTIVITY_SCH,No,3.8200E-008,0,5
 People Internal Gains Nominal, OFFICE3_FLR_5 ZN HOSPITAL OFFICE PEOPLE,HOSPITAL BLDG_OCC_SCH,OFFICE3_FLR_5 ZN,69.68,5.3,5.3,7.535E-002,13.272,0.300,0.700,AutoCalculate,HOSPITAL ACTIVITY_SCH,No,3.8200E-008,0,5
 People Internal Gains Nominal, OFFICE4_MULT6_FLR_5 ZN HOSPITAL OFFICE PEOPLE,HOSPITAL BLDG_OCC_SCH,OFFICE4_MULT6_FLR_5 ZN,13.94,1.1,1.1,7.535E-002,13.272,0.300,0.700,AutoCalculate,HOSPITAL ACTIVITY_SCH,No,3.8200E-008,0,1
 People Internal Gains Nominal, OR1_FLR_2 ZN HOSPITAL OR PEOPLE,HOSPITAL BLDG_OCC_SCH,OR1_FLR_2 ZN,55.74,3.0,3.0,5.382E-002,18.581,0.300,0.700,AutoCalculate,HOSPITAL ACTIVITY_SCH,No,3.8200E-008,0,3
 People Internal Gains Nominal, OR2_MULT5_FLR_2 ZN HOSPITAL OR PEOPLE,HOSPITAL BLDG_OCC_SCH,OR2_MULT5_FLR_2 ZN,55.74,3.0,3.0,5.382E-002,18.581,0.300,0.700,AutoCalculate,HOSPITAL ACTIVITY_SCH,No,3.8200E-008,0,3
 People Internal Gains Nominal, OR3_FLR_2 ZN HOSPITAL OR PEOPLE,HOSPITAL BLDG_OCC_SCH,OR3_FLR_2 ZN,55.74,3.0,3.0,5.382E-002,18.581,0.300,0.700,AutoCalculate,HOSPITAL ACTIVITY_SCH,No,3.8200E-008,0,3
 People Internal Gains Nominal, OR4_FLR_2 ZN HOSPITAL OR PEOPLE,HOSPITAL BLDG_OCC_SCH,OR4_FLR_2 ZN,222.97,12.0,12.0,5.382E-002,18.581,0.300,0.700,AutoCalculate,HOSPITAL ACTIVITY_SCH,No,3.8200E-008,0,12
 People Internal Gains Nominal, PATROOM1_MULT10_FLR_3 ZN HOSPITAL PATROOM PEOPLE,HOSPITAL BLDG_OCC_EXTD_SCH,PATROOM1_MULT10_FLR_3 ZN,20.90,1.1,1.1,5.382E-002,18.581,0.300,0.700,AutoCalculate,HOSPITAL ACTIVITY_SCH,No,3.8200E-008,0,1
 People Internal Gains Nominal, PATROOM1_MULT10_FLR_4 ZN HOSPITAL PATROOM PEOPLE,HOSPITAL BLDG_OCC_EXTD_SCH,PATROOM1_MULT10_FLR_4 ZN,20.90,1.1,1.1,5.382E-002,18.581,0.300,0.700,AutoCalculate,HOSPITAL ACTIVITY_SCH,No,3.8200E-008,0,1
 People Internal Gains Nominal, PATROOM2_FLR_3 ZN HOSPITAL PATROOM PEOPLE,HOSPITAL BLDG_OCC_EXTD_SCH,PATROOM2_FLR_3 ZN,34.84,1.9,1.9,5.382E-002,18.581,0.300,0.700,AutoCalculate,HOSPITAL ACTIVITY_SCH,No,3.8200E-008,0,2
 People Internal Gains Nominal, PATROOM2_FLR_4 ZN HOSPITAL PATROOM PEOPLE,HOSPITAL BLDG_OCC_EXTD_SCH,PATROOM2_FLR_4 ZN,34.84,1.9,1.9,5.382E-002,18.581,0.300,0.700,AutoCalculate,HOSPITAL ACTIVITY_SCH,No,3.8200E-008,0,2
 People Internal Gains Nominal, PATROOM3_MULT10_FLR_3 ZN HOSPITAL PATROOM PEOPLE,HOSPITAL BLDG_OCC_EXTD_SCH,PATROOM3_MULT10_FLR_3 ZN,20.21,1.1,1.1,5.382E-002,18.581,0.300,0.700,AutoCalculate,HOSPITAL ACTIVITY_SCH,No,3.8200E-008,0,1
 People Internal Gains Nominal, PATROOM3_MULT10_FLR_4 ZN HOSPITAL PATROOM PEOPLE,HOSPITAL BLDG_OCC_EXTD_SCH,PATROOM3_MULT10_FLR_4 ZN,20.21,1.1,1.1,5.382E-002,18.581,0.300,0.700,AutoCalculate,HOSPITAL ACTIVITY_SCH,No,3.8200E-008,0,1
 People Internal Gains Nominal, PATROOM4_FLR_3 ZN HOSPITAL PATROOM PEOPLE,HOSPITAL BLDG_OCC_EXTD_SCH,PATROOM4_FLR_3 ZN,34.84,1.9,1.9,5.382E-002,18.581,0.300,0.700,AutoCalculate,HOSPITAL ACTIVITY_SCH,No,3.8200E-008,0,2
 People Internal Gains Nominal, PATROOM4_FLR_4 ZN HOSPITAL PATROOM PEOPLE,HOSPITAL BLDG_OCC_EXTD_SCH,PATROOM4_FLR_4 ZN,34.84,1.9,1.9,5.382E-002,18.581,0.300,0.700,AutoCalculate,HOSPITAL ACTIVITY_SCH,No,3.8200E-008,0,2
 People Internal Gains Nominal, PATROOM5_MULT10_FLR_3 ZN HOSPITAL PATROOM PEOPLE,HOSPITAL BLDG_OCC_EXTD_SCH,PATROOM5_MULT10_FLR_3 ZN,20.90,1.1,1.1,5.382E-002,18.581,0.300,0.700,AutoCalculate,HOSPITAL ACTIVITY_SCH,No,3.8200E-008,0,1
 People Internal Gains Nominal, PATROOM5_MULT10_FLR_4 ZN HOSPITAL PATROOM PEOPLE,HOSPITAL BLDG_OCC_EXTD_SCH,PATROOM5_MULT10_FLR_4 ZN,20.90,1.1,1.1,5.382E-002,18.581,0.300,0.700,AutoCalculate,HOSPITAL ACTIVITY_SCH,No,3.8200E-008,0,1
 People Internal Gains Nominal, PATROOM6_FLR_3 ZN HOSPITAL PATROOM PEOPLE,HOSPITAL BLDG_OCC_EXTD_SCH,PATROOM6_FLR_3 ZN,27.87,1.5,1.5,5.382E-002,18.581,0.300,0.700,AutoCalculate,HOSPITAL ACTIVITY_SCH,No,3.8200E-008,0,2
 People Internal Gains Nominal, PATROOM6_FLR_4 ZN HOSPITAL PATROOM PEOPLE,HOSPITAL BLDG_OCC_EXTD_SCH,PATROOM6_FLR_4 ZN,27.87,1.5,1.5,5.382E-002,18.581,0.300,0.700,AutoCalculate,HOSPITAL ACTIVITY_SCH,No,3.8200E-008,0,2
 People Internal Gains Nominal, PATROOM7_MULT10_FLR_3 ZN HOSPITAL PATROOM PEOPLE,HOSPITAL BLDG_OCC_EXTD_SCH,PATROOM7_MULT10_FLR_3 ZN,20.21,1.1,1.1,5.382E-002,18.581,0.300,0.700,AutoCalculate,HOSPITAL ACTIVITY_SCH,No,3.8200E-008,0,1
 People Internal Gains Nominal, PATROOM7_MULT10_FLR_4 ZN HOSPITAL PATROOM PEOPLE,HOSPITAL BLDG_OCC_EXTD_SCH,PATROOM7_MULT10_FLR_4 ZN,20.21,1.1,1.1,5.382E-002,18.581,0.300,0.700,AutoCalculate,HOSPITAL ACTIVITY_SCH,No,3.8200E-008,0,1
 People Internal Gains Nominal, PATROOM8_FLR_3 ZN HOSPITAL PATROOM PEOPLE,HOSPITAL BLDG_OCC_EXTD_SCH,PATROOM8_FLR_3 ZN,27.87,1.5,1.5,5.382E-002,18.581,0.300,0.700,AutoCalculate,HOSPITAL ACTIVITY_SCH,No,3.8200E-008,0,2
 People Internal Gains Nominal, PATROOM8_FLR_4 ZN HOSPITAL PATROOM PEOPLE,HOSPITAL BLDG_OCC_EXTD_SCH,PATROOM8_FLR_4 ZN,27.87,1.5,1.5,5.382E-002,18.581,0.300,0.700,AutoCalculate,HOSPITAL ACTIVITY_SCH,No,3.8200E-008,0,2
 People Internal Gains Nominal, PHYSTHERAPY_FLR_3 ZN HOSPITAL PHYSTHERAPY PEOPLE,HOSPITAL BLDG_OCC_SCH,PHYSTHERAPY_FLR_3 ZN,487.74,26.2,26.2,5.382E-002,18.581,0.300,0.700,AutoCalculate,HOSPITAL ACTIVITY_SCH,No,3.8200E-008,0,26
 People Internal Gains Nominal, RADIOLOGY_FLR_4 ZN HOSPITAL RADIOLOGY PEOPLE,HOSPITAL BLDG_OCC_SCH,RADIOLOGY_FLR_4 ZN,487.74,26.2,26.2,5.382E-002,18.581,0.300,0.700,AutoCalculate,HOSPITAL ACTIVITY_SCH,No,3.8200E-008,0,26
! <Lights Internal Gains Nominal>,Name,Schedule Name,Zone Name,Zone Floor Area {m2},# Zone Occupants,Lighting Level {W},Lights/Floor Area {W/m2},Lights per person {W/person},Fraction Return Air,Fraction Radiant,Fraction Short Wave,Fraction Convected,Fraction Replaceable,End-Use Category,Nominal Minimum Lighting Level {W},Nominal Maximum Lighting Level {W}
 Lights Internal Gains Nominal, BASEMENT ZN HOSPITAL BASEMENT LIGHTS,HOSPITAL BLDG_LIGHT_OFFICE_BSMT_SCH,BASEMENT ZN,3739.35,100.6,36225.000,9.688,360.000,0.000,0.700,0.200,0.100,1.000,General,0.000,36225.000
 Lights Internal Gains Nominal, CORRIDOR_FLR_1 ZN HOSPITAL CORRIDOR LIGHTS,HOSPITAL BLDG_LIGHT_CORRIDOR_SCH,CORRIDOR_FLR_1 ZN,569.03,6.1,5451.250,9.580,890.000,0.000,0.700,0.200,0.100,1.000,General,0.000,5451.250
 Lights Internal Gains Nominal, CORRIDOR_FLR_2 ZN HOSPITAL CORRIDOR LIGHTS,HOSPITAL BLDG_LIGHT_CORRIDOR_SCH,CORRIDOR_FLR_2 ZN,569.03,6.1,5451.250,9.580,890.000,0.000,0.700,0.200,0.100,1.000,General,0.000,5451.250
 Lights Internal Gains Nominal, CORRIDOR_FLR_5 ZN HOSPITAL CORRIDOR LIGHTS,HOSPITAL BLDG_LIGHT_CORRIDOR_SCH,CORRIDOR_FLR_5 ZN,501.68,5.4,4806.000,9.580,890.000,0.000,0.700,0.200,0.100,1.000,General,0.000,4806.000
 Lights Internal Gains Nominal, CORRIDOR_NW_FLR_3 ZN HOSPITAL CORRIDOR LIGHTS,HOSPITAL BLDG_LIGHT_CORRIDOR_SCH,CORRIDOR_NW_FLR_3 ZN,566.71,6.1,5429.000,9.580,890.000,0.000,0.700,0.200,0.100,1.000,General,0.000,5429.000
 Lights Internal Gains Nominal, CORRIDOR_NW_FLR_4 ZN HOSPITAL CORRIDOR LIGHTS,HOSPITAL BLDG_LIGHT_CORRIDOR_SCH,CORRIDOR_NW_FLR_4 ZN,566.71,6.1,5429.000,9.580,890.000,0.000,0.700,0.200,0.100,1.000,General,0.000,5429.000
 Lights Internal Gains Nominal, CORRIDOR_SE_FLR_3 ZN HOSPITAL CORRIDOR LIGHTS,HOSPITAL BLDG_LIGHT_CORRIDOR_SCH,CORRIDOR_SE_FLR_3 ZN,566.71,6.1,5429.000,9.580,890.000,0.000,0.700,0.200,0.100,1.000,General,0.000,5429.000
 Lights Internal Gains Nominal, CORRIDOR_SE_FLR_4 ZN HOSPITAL CORRIDOR LIGHTS,HOSPITAL BLDG_LIGHT_CORRIDOR_SCH,CORRIDOR_SE_FLR_4 ZN,566.71,6.1,5429.000,9.580,890.000,0.000,0.700,0.200,0.100,1.000,General,0.000,5429.000
 Lights Internal Gains Nominal, DINING_FLR_5 ZN HOSPITAL DINING LIGHTS,HOSPITAL BLDG_LIGHT_SCH,DINING_FLR_5 ZN,696.77,75.0,4875.000,6.997,65.000,0.000,0.700,0.200,0.100,1.000,General,0.000,4875.000
 Lights Internal Gains Nominal, ER_EXAM1_MULT4_FLR_1 ZN HOSPITAL ER_EXAM LIGHTS,HOSPITAL BLDG_LIGHT_EXTD_SCH,ER_EXAM1_MULT4_FLR_1 ZN,27.87,6.0,678.000,24.326,113.000,0.000,0.700,0.200,0.100,1.000,General,0.000,678.000
 Lights Internal Gains Nominal, ER_EXAM3_MULT4_FLR_1 ZN HOSPITAL ER_EXAM LIGHTS,HOSPITAL BLDG_LIGHT_EXTD_SCH,ER_EXAM3_MULT4_FLR_1 ZN,27.87,6.0,678.000,24.326,113.000,0.000,0.700,0.200,0.100,1.000,General,0.000,678.000
 Lights Internal Gains Nominal, ER_NURSESTN_LOBBY_FLR_1 ZN HOSPITAL ER_NURSESTN LIGHTS,HOSPITAL BLDG_LIGHT_NURSEFLR1_SCH,ER_NURSESTN_LOBBY_FLR_1 ZN,1235.61,17.7,11571.000,9.365,652.663,0.000,0.700,0.200,0.100,1.000,General,0.000,11571.000
 Lights Internal Gains Nominal, ER_TRAUMA1_FLR_1 ZN HOSPITAL ER_TRAUMA LIGHTS,HOSPITAL BLDG_LIGHT_EXTD_SCH,ER_TRAUMA1_FLR_1 ZN,27.87,6.0,678.000,24.326,113.000,0.000,0.700,0.200,0.100,1.000,General,0.000,678.000
 Lights Internal Gains Nominal, ER_TRAUMA2_FLR_1 ZN HOSPITAL ER_TRAUMA LIGHTS,HOSPITAL BLDG_LIGHT_EXTD_SCH,ER_TRAUMA2_FLR_1 ZN,27.87,6.0,678.000,24.326,113.000,0.000,0.700,0.200,0.100,1.000,General,0.000,678.000
 Lights Internal Gains Nominal, ER_TRIAGE_MULT4_FLR_1 ZN HOSPITAL ER_TRIAGE LIGHTS,HOSPITAL BLDG_LIGHT_EXTD_SCH,ER_TRIAGE_MULT4_FLR_1 ZN,27.87,6.0,678.000,24.326,113.000,0.000,0.700,0.200,0.100,1.000,General,0.000,678.000
 Lights Internal Gains Nominal, ICU_NURSESTN_LOBBY_FLR_2 ZN HOSPITAL ICU_NURSESTN LIGHTS,HOSPITAL BLDG_LIGHT_EXTD_SCH,ICU_NURSESTN_LOBBY_FLR_2 ZN,668.77,9.6,6262.744,9.365,652.663,0.000,0.700,0.200,0.100,1.000,General,0.000,6262.744
 Lights Internal Gains Nominal, ICU_FLR_2 ZN HOSPITAL ICU_OPEN LIGHTS,HOSPITAL BLDG_LIGHT_EXTD_SCH,ICU_FLR_2 ZN,617.96,33.3,7649.471,12.378,230.000,0.000,0.700,0.200,0.100,1.000,General,0.000,7649.471
 Lights Internal Gains Nominal, IC_PATROOM1_MULT5_FLR_2 ZN HOSPITAL ICU_PATRM LIGHTS,HOSPITAL BLDG_LIGHT_EXTD_SCH,IC_PATROOM1_MULT5_FLR_2 ZN,20.90,1.1,139.500,6.674,124.000,0.000,0.700,0.200,0.100,1.000,General,0.000,139.500
 Lights Internal Gains Nominal, IC_PATROOM2_FLR_2 ZN HOSPITAL ICU_PATRM LIGHTS,HOSPITAL BLDG_LIGHT_EXTD_SCH,IC_PATROOM2_FLR_2 ZN,27.87,1.5,186.000,6.674,124.000,0.000,0.700,0.200,0.100,1.000,General,0.000,186.000
 Lights Internal Gains Nominal, IC_PATROOM3_MULT6_FLR_2 ZN HOSPITAL ICU_PATRM LIGHTS,HOSPITAL BLDG_LIGHT_EXTD_SCH,IC_PATROOM3_MULT6_FLR_2 ZN,20.90,1.1,139.500,6.674,124.000,0.000,0.700,0.200,0.100,1.000,General,0.000,139.500
 Lights Internal Gains Nominal, KITCHEN_FLR_5 ZN HOSPITAL KITCHEN LIGHTS,HOSPITAL BLDG_LIGHT_SCH,KITCHEN_FLR_5 ZN,929.03,50.0,9900.000,10.656,198.000,0.000,0.700,0.200,0.100,1.000,General,0.000,9900.000
 Lights Internal Gains Nominal, LAB_FLR_3 ZN HOSPITAL LAB LIGHTS,HOSPITAL BLDG_LIGHT_SCH,LAB_FLR_3 ZN,264.77,14.3,5158.500,19.483,362.000,0.000,0.700,0.200,0.100,1.000,General,0.000,5158.500
 Lights Internal Gains Nominal, LAB_FLR_4 ZN HOSPITAL LAB LIGHTS,HOSPITAL BLDG_LIGHT_SCH,LAB_FLR_4 ZN,264.77,14.3,5158.500,19.483,362.000,0.000,0.700,0.200,0.100,1.000,General,0.000,5158.500
 Lights Internal Gains Nominal, LOBBY_RECORDS_FLR_1 ZN HOSPITAL LOBBY LIGHTS,HOSPITAL BLDG_LIGHT_LOBBYFLR1_SCH,LOBBY_RECORDS_FLR_1 ZN,1474.81,21.2,14287.256,9.688,675.169,0.000,0.700,0.200,0.100,1.000,General,0.000,14287.256
 Lights Internal Gains Nominal, NURSESTN_LOBBY_FLR_3 ZN HOSPITAL NURSESTN LIGHTS,HOSPITAL BLDG_LIGHT_NURSEFLR234_SCH,NURSESTN_LOBBY_FLR_3 ZN,905.80,13.0,8482.500,9.365,652.663,0.000,0.700,0.200,0.100,1.000,General,0.000,8482.500
 Lights Internal Gains Nominal, NURSESTN_LOBBY_FLR_4 ZN HOSPITAL NURSESTN LIGHTS,HOSPITAL BLDG_LIGHT_NURSEFLR234_SCH,NURSESTN_LOBBY_FLR_4 ZN,905.80,13.0,8482.500,9.365,652.663,0.000,0.700,0.200,0.100,1.000,General,0.000,8482.500
 Lights Internal Gains Nominal, NURSESTN_LOBBY_FLR_5 ZN HOSPITAL NURSESTN LIGHTS,HOSPITAL BLDG_LIGHT_NURSEFLR234_SCH,NURSESTN_LOBBY_FLR_5 ZN,1040.51,14.9,9744.000,9.365,652.663,0.000,0.700,0.200,0.100,1.000,General,0.000,9744.000
 Lights Internal Gains Nominal, OR_NURSESTN_LOBBY_FLR_2 ZN HOSPITAL NURSESTN LIGHTS,HOSPITAL BLDG_LIGHT_NURSEFLR234_SCH,OR_NURSESTN_LOBBY_FLR_2 ZN,1012.64,14.5,9483.000,9.365,652.663,0.000,0.700,0.200,0.100,1.000,General,0.000,9483.000
 Lights Internal Gains Nominal, OFFICE1_FLR_5 ZN HOSPITAL OFFICE LIGHTS,HOSPITAL BLDG_LIGHT_OFFICE_SCH,OFFICE1_FLR_5 ZN,69.70,5.3,675.177,9.688,128.571,0.000,0.700,0.200,0.100,1.000,General,0.000,675.177
 Lights Internal Gains Nominal, OFFICE1_MULT4_FLR_1 ZN HOSPITAL OFFICE LIGHTS,HOSPITAL BLDG_LIGHT_OFFICE_SCH,OFFICE1_MULT4_FLR_1 ZN,13.94,1.1,135.000,9.688,128.571,0.000,0.700,0.200,0.100,1.000,General,0.000,135.000
 Lights Internal Gains Nominal, OFFICE2_MULT5_FLR_5 ZN HOSPITAL OFFICE LIGHTS,HOSPITAL BLDG_LIGHT_OFFICE_SCH,OFFICE2_MULT5_FLR_5 ZN,69.66,5.2,674.823,9.688,128.571,0.000,0.700,0.200,0.100,1.000,General,0.000,674.823
 Lights Internal Gains Nominal, OFFICE3_FLR_5 ZN HOSPITAL OFFICE LIGHTS,HOSPITAL BLDG_LIGHT_OFFICE_SCH,OFFICE3_FLR_5 ZN,69.68,5.3,675.000,9.688,128.571,0.000,0.700,0.200,0.100,1.000,General,0.000,675.000
 Lights Internal Gains Nominal, OFFICE4_MULT6_FLR_5 ZN HOSPITAL OFFICE LIGHTS,HOSPITAL BLDG_LIGHT_OFFICE_SCH,OFFICE4_MULT6_FLR_5 ZN,13.94,1.1,135.000,9.688,128.571,0.000,0.700,0.200,0.100,1.000,General,0.000,135.000
 Lights Internal Gains Nominal, OR1_FLR_2 ZN HOSPITAL OR LIGHTS,HOSPITAL BLDG_LIGHT_EXTD_SCH,OR1_FLR_2 ZN,55.74,3.0,1134.000,20.344,378.000,0.000,0.700,0.200,0.100,1.000,General,0.000,1134.000
 Lights Internal Gains Nominal, OR2_MULT5_FLR_2 ZN HOSPITAL OR LIGHTS,HOSPITAL BLDG_LIGHT_EXTD_SCH,OR2_MULT5_FLR_2 ZN,55.74,3.0,1134.000,20.344,378.000,0.000,0.700,0.200,0.100,1.000,General,0.000,1134.000
 Lights Internal Gains Nominal, OR3_FLR_2 ZN HOSPITAL OR LIGHTS,HOSPITAL BLDG_LIGHT_EXTD_SCH,OR3_FLR_2 ZN,55.74,3.0,1134.000,20.344,378.000,0.000,0.700,0.200,0.100,1.000,General,0.000,1134.000
 Lights Internal Gains Nominal, OR4_FLR_2 ZN HOSPITAL OR LIGHTS,HOSPITAL BLDG_LIGHT_EXTD_SCH,OR4_FLR_2 ZN,222.97,12.0,4536.000,20.344,378.000,0.000,0.700,0.200,0.100,1.000,General,0.000,4536.000
 Lights Internal Gains Nominal, PATROOM1_MULT10_FLR_3 ZN HOSPITAL PATROOM LIGHTS,HOSPITAL BLDG_LIGHT_SCH,PATROOM1_MULT10_FLR_3 ZN,20.90,1.1,139.500,6.674,124.000,0.000,0.700,0.200,0.100,1.000,General,0.000,139.500
 Lights Internal Gains Nominal, PATROOM1_MULT10_FLR_4 ZN HOSPITAL PATROOM LIGHTS,HOSPITAL BLDG_LIGHT_SCH,PATROOM1_MULT10_FLR_4 ZN,20.90,1.1,139.500,6.674,124.000,0.000,0.700,0.200,0.100,1.000,General,0.000,139.500
 Lights Internal Gains Nominal, PATROOM2_FLR_3 ZN HOSPITAL PATROOM LIGHTS,HOSPITAL BLDG_LIGHT_SCH,PATROOM2_FLR_3 ZN,34.84,1.9,232.500,6.674,124.000,0.000,0.700,0.200,0.100,1.000,General,0.000,232.500
 Lights Internal Gains Nominal, PATROOM2_FLR_4 ZN HOSPITAL PATROOM LIGHTS,HOSPITAL BLDG_LIGHT_SCH,PATROOM2_FLR_4 ZN,34.84,1.9,232.500,6.674,124.000,0.000,0.700,0.200,0.100,1.000,General,0.000,232.500
 Lights Internal Gains Nominal, PATROOM3_MULT10_FLR_3 ZN HOSPITAL PATROOM LIGHTS,HOSPITAL BLDG_LIGHT_SCH,PATROOM3_MULT10_FLR_3 ZN,20.21,1.1,134.862,6.674,124.000,0.000,0.700,0.200,0.100,1.000,General,0.000,134.862
 Lights Internal Gains Nominal, PATROOM3_MULT10_FLR_4 ZN HOSPITAL PATROOM LIGHTS,HOSPITAL BLDG_LIGHT_SCH,PATROOM3_MULT10_FLR_4 ZN,20.21,1.1,134.862,6.674,124.000,0.000,0.700,0.200,0.100,1.000,General,0.000,134.862
 Lights Internal Gains Nominal, PATROOM4_FLR_3 ZN HOSPITAL PATROOM LIGHTS,HOSPITAL BLDG_LIGHT_SCH,PATROOM4_FLR_3 ZN,34.84,1.9,232.500,6.674,124.000,0.000,0.700,0.200,0.100,1.000,General,0.000,232.500
 Lights Internal Gains Nominal, PATROOM4_FLR_4 ZN HOSPITAL PATROOM LIGHTS,HOSPITAL BLDG_LIGHT_SCH,PATROOM4_FLR_4 ZN,34.84,1.9,232.500,6.674,124.000,0.000,0.700,0.200,0.100,1.000,General,0.000,232.500
 Lights Internal Gains Nominal, PATROOM5_MULT10_FLR_3 ZN HOSPITAL PATROOM LIGHTS,HOSPITAL BLDG_LIGHT_SCH,PATROOM5_MULT10_FLR_3 ZN,20.90,1.1,139.500,6.674,124.000,0.000,0.700,0.200,0.100,1.000,General,0.000,139.500
 Lights Internal Gains Nominal, PATROOM5_MULT10_FLR_4 ZN HOSPITAL PATROOM LIGHTS,HOSPITAL BLDG_LIGHT_SCH,PATROOM5_MULT10_FLR_4 ZN,20.90,1.1,139.500,6.674,124.000,0.000,0.700,0.200,0.100,1.000,General,0.000,139.500
 Lights Internal Gains Nominal, PATROOM6_FLR_3 ZN HOSPITAL PATROOM LIGHTS,HOSPITAL BLDG_LIGHT_SCH,PATROOM6_FLR_3 ZN,27.87,1.5,186.000,6.674,124.000,0.000,0.700,0.200,0.100,1.000,General,0.000,186.000
 Lights Internal Gains Nominal, PATROOM6_FLR_4 ZN HOSPITAL PATROOM LIGHTS,HOSPITAL BLDG_LIGHT_SCH,PATROOM6_FLR_4 ZN,27.87,1.5,186.000,6.674,124.000,0.000,0.700,0.200,0.100,1.000,General,0.000,186.000
 Lights Internal Gains Nominal, PATROOM7_MULT10_FLR_3 ZN HOSPITAL PATROOM LIGHTS,HOSPITAL BLDG_LIGHT_SCH,PATROOM7_MULT10_FLR_3 ZN,20.21,1.1,134.862,6.674,124.000,0.000,0.700,0.200,0.100,1.000,General,0.000,134.862
 Lights Internal Gains Nominal, PATROOM7_MULT10_FLR_4 ZN HOSPITAL PATROOM LIGHTS,HOSPITAL BLDG_LIGHT_SCH,PATROOM7_MULT10_FLR_4 ZN,20.21,1.1,134.862,6.674,124.000,0.000,0.700,0.200,0.100,1.000,General,0.000,134.862
 Lights Internal Gains Nominal, PATROOM8_FLR_3 ZN HOSPITAL PATROOM LIGHTS,HOSPITAL BLDG_LIGHT_SCH,PATROOM8_FLR_3 ZN,27.87,1.5,186.000,6.674,124.000,0.000,0.700,0.200,0.100,1.000,General,0.000,186.000
 Lights Internal Gains Nominal, PATROOM8_FLR_4 ZN HOSPITAL PATROOM LIGHTS,HOSPITAL BLDG_LIGHT_SCH,PATROOM8_FLR_4 ZN,27.87,1.5,186.000,6.674,124.000,0.000,0.700,0.200,0.100,1.000,General,0.000,186.000
 Lights Internal Gains Nominal, PHYSTHERAPY_FLR_3 ZN HOSPITAL PHYSTHERAPY LIGHTS,HOSPITAL BLDG_LIGHT_SCH,PHYSTHERAPY_FLR_3 ZN,487.74,26.2,4777.500,9.795,182.000,0.000,0.700,0.200,0.100,1.000,General,0.000,4777.500
 Lights Internal Gains Nominal, RADIOLOGY_FLR_4 ZN HOSPITAL RADIOLOGY LIGHTS,HOSPITAL BLDG_LIGHT_RADIOLOGY_SCH,RADIOLOGY_FLR_4 ZN,487.74,26.2,6930.000,14.208,264.000,0.000,0.700,0.200,0.100,1.000,General,0.000,6930.000
! <ElectricEquipment Internal Gains Nominal>,Name,Schedule Name,Zone Name,Zone Floor Area {m2},# Zone Occupants,Equipment Level {W},Equipment/Floor Area {W/m2},Equipment per person {W/person},Fraction Latent,Fraction Radiant,Fraction Lost,Fraction Convected,End-Use SubCategory,Nominal Minimum Equipment Level {W},Nominal Maximum Equipment Level {W}
 ElectricEquipment Internal Gains Nominal, BASEMENT ZN HOSPITAL BASEMENT ELEC EQUIP,HOSPITAL BLDG_EQUIP_SCH,BASEMENT ZN,3739.35,100.6,30187.500,8.073,300.000,0.000,0.500,0.000,0.500,General,0.000,30187.500
 ElectricEquipment Internal Gains Nominal, DINING_FLR_5 ZN HOSPITAL DINING ELEC EQUIP,HOSPITAL BLDG_EQUIP_EXTD_SCH,DINING_FLR_5 ZN,696.77,75.0,7500.000,10.764,100.000,0.000,0.500,0.000,0.500,General,0.000,7500.000
 ElectricEquipment Internal Gains Nominal, ER_EXAM1_MULT4_FLR_1 ZN HOSPITAL ER_EXAM ELEC EQUIP,HOSPITAL BLDG_EQUIP_EXTD_SCH,ER_EXAM1_MULT4_FLR_1 ZN,27.87,6.0,450.000,16.146,75.000,0.000,0.500,0.000,0.500,General,0.000,450.000
 ElectricEquipment Internal Gains Nominal, ER_EXAM3_MULT4_FLR_1 ZN HOSPITAL ER_EXAM ELEC EQUIP,HOSPITAL BLDG_EQUIP_EXTD_SCH,ER_EXAM3_MULT4_FLR_1 ZN,27.87,6.0,450.000,16.146,75.000,0.000,0.500,0.000,0.500,General,0.000,450.000
 ElectricEquipment Internal Gains Nominal, ER_NURSESTN_LOBBY_FLR_1 ZN HOSPITAL ER_NURSESTN ELEC EQUIP,HOSPITAL BLDG_EQUIP_EXTD_SCH,ER_NURSESTN_LOBBY_FLR_1 ZN,1235.61,17.7,18088.000,14.639,1020.255,0.000,0.500,0.000,0.500,General,0.000,18088.000
 ElectricEquipment Internal Gains Nominal, ER_TRAUMA1_FLR_1 ZN HOSPITAL ER_TRAUMA ELEC EQUIP,HOSPITAL BLDG_EQUIP_EXTD_SCH,ER_TRAUMA1_FLR_1 ZN,27.87,6.0,1200.000,43.056,200.000,0.000,0.500,0.000,0.500,General,0.000,1200.000
 ElectricEquipment Internal Gains Nominal, ER_TRAUMA2_FLR_1 ZN HOSPITAL ER_TRAUMA ELEC EQUIP,HOSPITAL BLDG_EQUIP_EXTD_SCH,ER_TRAUMA2_FLR_1 ZN,27.87,6.0,1200.000,43.056,200.000,0.000,0.500,0.000,0.500,General,0.000,1200.000
 ElectricEquipment Internal Gains Nominal, ER_TRIAGE_MULT4_FLR_1 ZN HOSPITAL ER_TRIAGE ELEC EQUIP,HOSPITAL BLDG_EQUIP_EXTD_SCH,ER_TRIAGE_MULT4_FLR_1 ZN,27.87,6.0,600.000,21.528,100.000,0.000,0.500,0.000,0.500,General,0.000,600.000
 ElectricEquipment Internal Gains Nominal, ICU_NURSESTN_LOBBY_FLR_2 ZN HOSPITAL ICU_NURSESTN ELEC EQUIP,HOSPITAL BLDG_EQUIP_EXTD_SCH,ICU_NURSESTN_LOBBY_FLR_2 ZN,668.77,9.6,14397.113,21.528,1500.375,0.000,0.500,0.000,0.500,General,0.000,14397.113
 ElectricEquipment Internal Gains Nominal, ICU_FLR_2 ZN HOSPITAL ICU_OPEN ELEC EQUIP,HOSPITAL BLDG_EQUIP_EXTD_SCH,ICU_FLR_2 ZN,617.96,33.3,19955.143,32.292,600.000,0.000,0.500,0.000,0.500,General,0.000,19955.143
 ElectricEquipment Internal Gains Nominal, IC_PATROOM1_MULT5_FLR_2 ZN HOSPITAL ICU_PATRM ELEC EQUIP,HOSPITAL BLDG_EQUIP_EXTD_SCH,IC_PATROOM1_MULT5_FLR_2 ZN,20.90,1.1,675.000,32.292,600.000,0.000,0.500,0.000,0.500,General,0.000,675.000
 ElectricEquipment Internal Gains Nominal, IC_PATROOM2_FLR_2 ZN HOSPITAL ICU_PATRM ELEC EQUIP,HOSPITAL BLDG_EQUIP_EXTD_SCH,IC_PATROOM2_FLR_2 ZN,27.87,1.5,900.000,32.292,600.000,0.000,0.500,0.000,0.500,General,0.000,900.000
 ElectricEquipment Internal Gains Nominal, IC_PATROOM3_MULT6_FLR_2 ZN HOSPITAL ICU_PATRM ELEC EQUIP,HOSPITAL BLDG_EQUIP_EXTD_SCH,IC_PATROOM3_MULT6_FLR_2 ZN,20.90,1.1,675.000,32.292,600.000,0.000,0.500,0.000,0.500,General,0.000,675.000
 ElectricEquipment Internal Gains Nominal, KITCHEN_FLR_5 ZN HOSPITAL KITCHEN ELEC EQUIP,HOSPITAL BLDG_EQUIP_EXTD_SCH,KITCHEN_FLR_5 ZN,929.03,50.0,75000.000,80.729,1500.000,0.000,0.500,0.000,0.500,General,0.000,75000.000
 ElectricEquipment Internal Gains Nominal, KITCHEN_FLR_5 ZN KITCHEN_REACH-IN-FREEZER,HOSPITAL ALWAYS_ON,KITCHEN_FLR_5 ZN,929.03,50.0,1031.800,1.111,20.636,0.000,0.250,0.000,0.750,General,1031.800,1031.800
 ElectricEquipment Internal Gains Nominal, KITCHEN_FLR_5 ZN KITCHEN_REACH-IN-REFRIGERATOR,HOSPITAL ALWAYS_ON,KITCHEN_FLR_5 ZN,929.03,50.0,1277.500,1.375,25.550,0.000,0.250,0.000,0.750,General,1277.500,1277.500
 ElectricEquipment Internal Gains Nominal, LAB_FLR_3 ZN HOSPITAL LAB ELEC EQUIP,HOSPITAL BLDG_EQUIP_SCH,LAB_FLR_3 ZN,264.77,14.3,11400.000,43.056,800.000,0.000,0.500,0.000,0.500,General,0.000,11400.000
 ElectricEquipment Internal Gains Nominal, LAB_FLR_4 ZN HOSPITAL LAB ELEC EQUIP,HOSPITAL BLDG_EQUIP_SCH,LAB_FLR_4 ZN,264.77,14.3,11400.000,43.056,800.000,0.000,0.500,0.000,0.500,General,0.000,11400.000
 ElectricEquipment Internal Gains Nominal, LOBBY_RECORDS_FLR_1 ZN HOSPITAL LOBBY ELEC EQUIP,HOSPITAL BLDG_EQUIP_SCH,LOBBY_RECORDS_FLR_1 ZN,1474.81,21.2,1587.473,1.076,75.019,0.000,0.500,0.000,0.500,General,0.000,1587.473
 ElectricEquipment Internal Gains Nominal, NURSESTN_LOBBY_FLR_3 ZN HOSPITAL NURSESTN ELEC EQUIP,HOSPITAL BLDG_EQUIP_SCH,NURSESTN_LOBBY_FLR_3 ZN,905.80,13.0,10140.000,11.194,780.195,0.000,0.500,0.000,0.500,General,0.000,10140.000
 ElectricEquipment Internal Gains Nominal, NURSESTN_LOBBY_FLR_4 ZN HOSPITAL NURSESTN ELEC EQUIP,HOSPITAL BLDG_EQUIP_SCH,NURSESTN_LOBBY_FLR_4 ZN,905.80,13.0,10140.000,11.194,780.195,0.000,0.500,0.000,0.500,General,0.000,10140.000
 ElectricEquipment Internal Gains Nominal, NURSESTN_LOBBY_FLR_5 ZN HOSPITAL NURSESTN ELEC EQUIP,HOSPITAL BLDG_EQUIP_SCH,NURSESTN_LOBBY_FLR_5 ZN,1040.51,14.9,11648.000,11.194,780.195,0.000,0.500,0.000,0.500,General,0.000,11648.000
 ElectricEquipment Internal Gains Nominal, OR_NURSESTN_LOBBY_FLR_2 ZN HOSPITAL NURSESTN ELEC EQUIP,HOSPITAL BLDG_EQUIP_SCH,OR_NURSESTN_LOBBY_FLR_2 ZN,1012.64,14.5,11336.000,11.194,780.195,0.000,0.500,0.000,0.500,General,0.000,11336.000
 ElectricEquipment Internal Gains Nominal, OFFICE1_FLR_5 ZN HOSPITAL OFFICE ELEC EQUIP,HOSPITAL BLDG_EQUIP_SCH,OFFICE1_FLR_5 ZN,69.70,5.3,750.197,10.764,142.857,0.000,0.500,0.000,0.500,General,0.000,750.197
 ElectricEquipment Internal Gains Nominal, OFFICE1_MULT4_FLR_1 ZN HOSPITAL OFFICE ELEC EQUIP,HOSPITAL BLDG_EQUIP_SCH,OFFICE1_MULT4_FLR_1 ZN,13.94,1.1,150.000,10.764,142.857,0.000,0.500,0.000,0.500,General,0.000,150.000
 ElectricEquipment Internal Gains Nominal, OFFICE2_MULT5_FLR_5 ZN HOSPITAL OFFICE ELEC EQUIP,HOSPITAL BLDG_EQUIP_SCH,OFFICE2_MULT5_FLR_5 ZN,69.66,5.2,749.803,10.764,142.857,0.000,0.500,0.000,0.500,General,0.000,749.803
 ElectricEquipment Internal Gains Nominal, OFFICE3_FLR_5 ZN HOSPITAL OFFICE ELEC EQUIP,HOSPITAL BLDG_EQUIP_SCH,OFFICE3_FLR_5 ZN,69.68,5.3,750.000,10.764,142.857,0.000,0.500,0.000,0.500,General,0.000,750.000
 ElectricEquipment Internal Gains Nominal, OFFICE4_MULT6_FLR_5 ZN HOSPITAL OFFICE ELEC EQUIP,HOSPITAL BLDG_EQUIP_SCH,OFFICE4_MULT6_FLR_5 ZN,13.94,1.1,150.000,10.764,142.857,0.000,0.500,0.000,0.500,General,0.000,150.000
 ElectricEquipment Internal Gains Nominal, OR1_FLR_2 ZN HOSPITAL OR ELEC EQUIP,HOSPITAL BLDG_EQUIP_EXTD_SCH,OR1_FLR_2 ZN,55.74,3.0,2400.000,43.056,800.000,0.000,0.500,0.000,0.500,General,0.000,2400.000
 ElectricEquipment Internal Gains Nominal, OR2_MULT5_FLR_2 ZN HOSPITAL OR ELEC EQUIP,HOSPITAL BLDG_EQUIP_EXTD_SCH,OR2_MULT5_FLR_2 ZN,55.74,3.0,2400.000,43.056,800.000,0.000,0.500,0.000,0.500,General,0.000,2400.000
 ElectricEquipment Internal Gains Nominal, OR3_FLR_2 ZN HOSPITAL OR ELEC EQUIP,HOSPITAL BLDG_EQUIP_EXTD_SCH,OR3_FLR_2 ZN,55.74,3.0,2400.000,43.056,800.000,0.000,0.500,0.000,0.500,General,0.000,2400.000
 ElectricEquipment Internal Gains Nominal, OR4_FLR_2 ZN HOSPITAL OR ELEC EQUIP,HOSPITAL BLDG_EQUIP_EXTD_SCH,OR4_FLR_2 ZN,222.97,12.0,9600.000,43.056,800.000,0.000,0.500,0.000,0.500,General,0.000,9600.000
 ElectricEquipment Internal Gains Nominal, PATROOM1_MULT10_FLR_3 ZN HOSPITAL PATROOM ELEC EQUIP,HOSPITAL BLDG_EQUIP_EXTD_SCH,PATROOM1_MULT10_FLR_3 ZN,20.90,1.1,450.000,21.528,400.000,0.000,0.500,0.000,0.500,General,0.000,450.000
 ElectricEquipment Internal Gains Nominal, PATROOM1_MULT10_FLR_4 ZN HOSPITAL PATROOM ELEC EQUIP,HOSPITAL BLDG_EQUIP_EXTD_SCH,PATROOM1_MULT10_FLR_4 ZN,20.90,1.1,450.000,21.528,400.000,0.000,0.500,0.000,0.500,General,0.000,450.000
 ElectricEquipment Internal Gains Nominal, PATROOM2_FLR_3 ZN HOSPITAL PATROOM ELEC EQUIP,HOSPITAL BLDG_EQUIP_EXTD_SCH,PATROOM2_FLR_3 ZN,34.84,1.9,750.000,21.528,400.000,0.000,0.500,0.000,0.500,General,0.000,750.000
 ElectricEquipment Internal Gains Nominal, PATROOM2_FLR_4 ZN HOSPITAL PATROOM ELEC EQUIP,HOSPITAL BLDG_EQUIP_EXTD_SCH,PATROOM2_FLR_4 ZN,34.84,1.9,750.000,21.528,400.000,0.000,0.500,0.000,0.500,General,0.000,750.000
 ElectricEquipment Internal Gains Nominal, PATROOM3_MULT10_FLR_3 ZN HOSPITAL PATROOM ELEC EQUIP,HOSPITAL BLDG_EQUIP_EXTD_SCH,PATROOM3_MULT10_FLR_3 ZN,20.21,1.1,435.039,21.528,400.000,0.000,0.500,0.000,0.500,General,0.000,435.039
 ElectricEquipment Internal Gains Nominal, PATROOM3_MULT10_FLR_4 ZN HOSPITAL PATROOM ELEC EQUIP,HOSPITAL BLDG_EQUIP_EXTD_SCH,PATROOM3_MULT10_FLR_4 ZN,20.21,1.1,435.039,21.528,400.000,0.000,0.500,0.000,0.500,General,0.000,435.039
 ElectricEquipment Internal Gains Nominal, PATROOM4_FLR_3 ZN HOSPITAL PATROOM ELEC EQUIP,HOSPITAL BLDG_EQUIP_EXTD_SCH,PATROOM4_FLR_3 ZN,34.84,1.9,750.000,21.528,400.000,0.000,0.500,0.000,0.500,General,0.000,750.000
 ElectricEquipment Internal Gains Nominal, PATROOM4_FLR_4 ZN HOSPITAL PATROOM ELEC EQUIP,HOSPITAL BLDG_EQUIP_EXTD_SCH,PATROOM4_FLR_4 ZN,34.84,1.9,750.000,21.528,400.000,0.000,0.500,0.000,0.500,General,0.000,750.000
 ElectricEquipment Internal Gains Nominal, PATROOM5_MULT10_FLR_3 ZN HOSPITAL PATROOM ELEC EQUIP,HOSPITAL BLDG_EQUIP_EXTD_SCH,PATROOM5_MULT10_FLR_3 ZN,20.90,1.1,450.000,21.528,400.000,0.000,0.500,0.000,0.500,General,0.000,450.000
 ElectricEquipment Internal Gains Nominal, PATROOM5_MULT10_FLR_4 ZN HOSPITAL PATROOM ELEC EQUIP,HOSPITAL BLDG_EQUIP_EXTD_SCH,PATROOM5_MULT10_FLR_4 ZN,20.90,1.1,450.000,21.528,400.000,0.000,0.500,0.000,0.500,General,0.000,450.000
 ElectricEquipment Internal Gains Nominal, PATROOM6_FLR_3 ZN HOSPITAL PATROOM ELEC EQUIP,HOSPITAL BLDG_EQUIP_EXTD_SCH,PATROOM6_FLR_3 ZN,27.87,1.5,600.000,21.528,400.000,0.000,0.500,0.000,0.500,General,0.000,600.000
 ElectricEquipment Internal Gains Nominal, PATROOM6_FLR_4 ZN HOSPITAL PATROOM ELEC EQUIP,HOSPITAL BLDG_EQUIP_EXTD_SCH,PATROOM6_FLR_4 ZN,27.87,1.5,600.000,21.528,400.000,0.000,0.500,0.000,0.500,General,0.000,600.000
 ElectricEquipment Internal Gains Nominal, PATROOM7_MULT10_FLR_3 ZN HOSPITAL PATROOM ELEC EQUIP,HOSPITAL BLDG_EQUIP_EXTD_SCH,PATROOM7_MULT10_FLR_3 ZN,20.21,1.1,435.039,21.528,400.000,0.000,0.500,0.000,0.500,General,0.000,435.039
 ElectricEquipment Internal Gains Nominal, PATROOM7_MULT10_FLR_4 ZN HOSPITAL PATROOM ELEC EQUIP,HOSPITAL BLDG_EQUIP_EXTD_SCH,PATROOM7_MULT10_FLR_4 ZN,20.21,1.1,435.039,21.528,400.000,0.000,0.500,0.000,0.500,General,0.000,435.039
 ElectricEquipment Internal Gains Nominal, PATROOM8_FLR_3 ZN HOSPITAL PATROOM ELEC EQUIP,HOSPITAL BLDG_EQUIP_EXTD_SCH,PATROOM8_FLR_3 ZN,27.87,1.5,600.000,21.528,400.000,0.000,0.500,0.000,0.500,General,0.000,600.000
 ElectricEquipment Internal Gains Nominal, PATROOM8_FLR_4 ZN HOSPITAL PATROOM ELEC EQUIP,HOSPITAL BLDG_EQUIP_EXTD_SCH,PATROOM8_FLR_4 ZN,27.87,1.5,600.000,21.528,400.000,0.000,0.500,0.000,0.500,General,0.000,600.000
 ElectricEquipment Internal Gains Nominal, PHYSTHERAPY_FLR_3 ZN HOSPITAL PHYSTHERAPY ELEC EQUIP,HOSPITAL BLDG_EQUIP_SCH,PHYSTHERAPY_FLR_3 ZN,487.74,26.2,7875.000,16.146,300.000,0.000,0.500,0.000,0.500,General,0.000,7875.000
 ElectricEquipment Internal Gains Nominal, RADIOLOGY_FLR_4 ZN HOSPITAL RADIOLOGY ELEC EQUIP,HOSPITAL BLDG_EQUIP_SCH,RADIOLOGY_FLR_4 ZN,487.74,26.2,52500.000,107.639,2000.000,0.000,0.500,0.000,0.500,General,0.000,52500.000
! <GasEquipment Internal Gains Nominal>,Name,Schedule Name,Zone Name,Zone Floor Area {m2},# Zone Occupants,Equipment Level {W},Equipment/Floor Area {W/m2},Equipment per person {W/person},Fraction Latent,Fraction Radiant,Fraction Lost,Fraction Convected,End-Use SubCategory,Nominal Minimum Equipment Level {W},Nominal Maximum Equipment Level {W}
 GasEquipment Internal Gains Nominal, KITCHEN_FLR_5 ZN HOSPITAL KITCHEN GAS EQUIP,HOSPITAL BLDG_EQUIP_SCH,KITCHEN_FLR_5 ZN,929.03,50.0,149935.160,161.389,2998.703,0.000,0.500,0.000,0.500,General,0.000,149935.160
! <Shadowing/Sun Position Calculations Annual Simulations>, Shading Calculation Method, Shading Calculation Update Frequency Method, Shading Calculation Update Frequency {days}, Maximum Figures in Shadow Overlap Calculations {}, Polygon Clipping Algorithm, Pixel Counting Resolution, Sky Diffuse Modeling Algorithm, Output External Shading Calculation Results, Disable Self-Shading Within Shading Zone Groups, Disable Self-Shading From Shading Zone Groups to Other Zones
Shadowing/Sun Position Calculations Annual Simulations,PolygonClipping,Periodic,20,15000,SutherlandHodgman,512,SimpleSkyDiffuseModeling,No,No,No
! <Zone/Window Adjacency Daylighting Counts>, Zone Name, Number of Exterior Windows, Number of Exterior Windows in Adjacent Zones
Zone/Window Adjacency Daylighting Counts, LOBBY_RECORDS_FLR_1 ZN,1,0
Zone/Window Adjacency Daylighting Counts, OFFICE1_FLR_5 ZN,2,0
Zone/Window Adjacency Daylighting Counts, OFFICE3_FLR_5 ZN,2,0
! <Zone/Window Adjacency Daylighting Matrix>, Zone Name, Number of Adjacent Zones with Windows,Adjacent Zone Names - 1st 100 (max)
Zone/Window Adjacency Daylighting Matrix, LOBBY_RECORDS_FLR_1 ZN,0
Zone/Window Adjacency Daylighting Matrix, OFFICE1_FLR_5 ZN,0
Zone/Window Adjacency Daylighting Matrix, OFFICE3_FLR_5 ZN,0
! <#Detailed Refrigeration Systems>,Number of Detailed Refrigeration Systems
! <Detailed Refrigeration System>,Refrigeration System Name,Refrigerant Used, # Refrigerated Cases Connected, # WalkInCoolers Connected, #Air Chillers Connected, # Secondary Loops Served, # Cascade Condensers Served, # Mechanical Subcoolers Served, # Compressors Connected, # Compression Stages, Intercooler Type, Intercooler Effectiveness, # Subcoolers Connected, Minimum Condensing Temperature (C)
!  <Refrigeration Compressor>,Compressor Number,Compressor Name,Nominal Capacity (W)
!  <Refrigeration Case>,Refrigeration Case Number, Refrigeration Case Name,Zone Name,Zone Node #,Zone Node Name,Capacity (W/m),LHR,Temperature (C),Length (m),Fan (W/m),Installed Lighting (W/m),Anti-Sweat (W/m),Defrost (W/m)
!  <Refrigeration Walk In Cooler>, Walk In Number, Walk In Name,Capacity (W),Temperature (C),Coil Fan (W), Circulating Fan (W), Lighting (W),Heaters (W),Defrost (W), # Zones
!      <Walk-In Surfaces Facing Zone>, ZoneName, Wall/Ceiling Area (m2), UValue (W/m2-C), AreaStockDoors (m2), HeightStockDoors, UValueStockDoors (W/m2-C), AreaGlassDoors (m2), HeightGlassDoors (m),  UValueGlassDoors (W/m2-C)
!  <Refrigeration Condenser:Air-Cooled>,Condenser Number,Condenser Name,Rated Condensing Temperature (C),Rated Capacity (W), Rated Fan Power (W)
#Detailed Refrigeration Systems,1
 Detailed Refrigeration System,REFRSYSTEM - HOSPITAL,R404A,1,1,0,0,0,0,20,1,0,0.80,0,21.0
   Refrigeration Case,1,CASE HOSPITAL,KITCHEN_FLR_5 ZN,458,KITCHEN_FLR_5 ZN ZONE AIR NODE,886.5,8.00E-002,2.0,8.9,67.0,40.0,0.0,0.0
   Refrigeration Walk In Cooler,1,WALK-IN HOSPITAL,8059.3,-23.0,757.6,0.0,362.3,0.0,3996.7,1
      Walk-In Surfaces Facing Zone, KITCHEN_FLR_5 ZN,43.4,0.2350,2.00,2.00,0.3785,0.00,1.50,1.1360
   Refrigeration Compressor,1,REFRIGERATION COMPRESSOR 1,18145
   Refrigeration Compressor,2,REFRIGERATION COMPRESSOR 2,18145
   Refrigeration Compressor,3,REFRIGERATION COMPRESSOR 3,18145
   Refrigeration Compressor,4,REFRIGERATION COMPRESSOR 4,18145
   Refrigeration Compressor,5,REFRIGERATION COMPRESSOR 5,18145
   Refrigeration Compressor,6,REFRIGERATION COMPRESSOR 6,18145
   Refrigeration Compressor,7,REFRIGERATION COMPRESSOR 7,18145
   Refrigeration Compressor,8,REFRIGERATION COMPRESSOR 8,18145
   Refrigeration Compressor,9,REFRIGERATION COMPRESSOR 9,18145
   Refrigeration Compressor,10,REFRIGERATION COMPRESSOR 10,18145
   Refrigeration Compressor,11,REFRIGERATION COMPRESSOR 11,18145
   Refrigeration Compressor,12,REFRIGERATION COMPRESSOR 12,18145
   Refrigeration Compressor,13,REFRIGERATION COMPRESSOR 13,18145
   Refrigeration Compressor,14,REFRIGERATION COMPRESSOR 14,18145
   Refrigeration Compressor,15,REFRIGERATION COMPRESSOR 15,18145
   Refrigeration Compressor,16,REFRIGERATION COMPRESSOR 16,18145
   Refrigeration Compressor,17,REFRIGERATION COMPRESSOR 17,18145
   Refrigeration Compressor,18,REFRIGERATION COMPRESSOR 18,18145
   Refrigeration Compressor,19,REFRIGERATION COMPRESSOR 19,18145
   Refrigeration Compressor,20,REFRIGERATION COMPRESSOR 20,18145
   Refrigeration Condenser:Air-Cooled,1,REFRIGERATION CONDENSER AIR COOLED 1,51.7,50638.3,1449.6
! <Water Heater Information>,Type,Name,Volume {m3},Maximum Capacity {W},Standard Rated Recovery Efficiency, Standard Rated Energy Factor
! <ZoneInfiltration Airflow Stats Nominal>,Name,Schedule Name,Zone Name, Zone Floor Area {m2}, # Zone Occupants,Design Volume Flow Rate {m3/s},Volume Flow Rate/Floor Area {m3/s-m2},Volume Flow Rate/Exterior Surface Area {m3/s-m2},ACH - Air Changes per Hour,Equation A - Constant Term Coefficient {},Equation B - Temperature Term Coefficient {1/C},Equation C - Velocity Term Coefficient {s/m}, Equation D - Velocity Squared Term Coefficient {s2/m2}
 ZoneInfiltration Airflow Stats Nominal, CORRIDOR_FLR_1 INFILTRATION,HOSPITAL INFIL_SCH_PNNL,CORRIDOR_FLR_1 ZN,569.03,6.1,5.632E-002,9.897E-005,5.696E-004,8.347E-002,0.000,0.000,0.224,0.000
 ZoneInfiltration Airflow Stats Nominal, CORRIDOR_FLR_2 INFILTRATION,HOSPITAL INFIL_SCH_PNNL,CORRIDOR_FLR_2 ZN,569.03,6.1,5.187E-002,9.116E-005,5.696E-004,7.688E-002,0.000,0.000,0.224,0.000
 ZoneInfiltration Airflow Stats Nominal, CORRIDOR_FLR_5 INFILTRATION,HOSPITAL INFIL_SCH_PNNL,CORRIDOR_FLR_5 ZN,501.68,5.4,0.156,3.102E-004,2.008E-004,0.262,0.000,0.000,0.224,0.000
 ZoneInfiltration Airflow Stats Nominal, CORRIDOR_NW_FLR_3 INFILTRATION,HOSPITAL INFIL_SCH_PNNL,CORRIDOR_NW_FLR_3 ZN,566.71,6.1,0.233,4.119E-004,5.696E-004,0.347,0.000,0.000,0.224,0.000
 ZoneInfiltration Airflow Stats Nominal, CORRIDOR_NW_FLR_4 INFILTRATION,HOSPITAL INFIL_SCH_PNNL,CORRIDOR_NW_FLR_4 ZN,566.71,6.1,0.233,4.119E-004,4.250E-004,0.347,0.000,0.000,0.224,0.000
 ZoneInfiltration Airflow Stats Nominal, CORRIDOR_SE_FLR_3 INFILTRATION,HOSPITAL INFIL_SCH_PNNL,CORRIDOR_SE_FLR_3 ZN,566.71,6.1,0.212,3.740E-004,5.696E-004,0.315,0.000,0.000,0.224,0.000
 ZoneInfiltration Airflow Stats Nominal, CORRIDOR_SE_FLR_4 INFILTRATION,HOSPITAL INFIL_SCH_PNNL,CORRIDOR_SE_FLR_4 ZN,566.71,6.1,0.212,3.740E-004,5.696E-004,0.315,0.000,0.000,0.224,0.000
 ZoneInfiltration Airflow Stats Nominal, DINING_FLR_5 INFILTRATION,HOSPITAL INFIL_SCH_PNNL,DINING_FLR_5 ZN,696.77,75.0,0.130,1.861E-004,1.403E-004,0.157,0.000,0.000,0.224,0.000
 ZoneInfiltration Airflow Stats Nominal, ER_EXAM1_MULT4_FLR_1 INFILTRATION,HOSPITAL INFIL_SCH_PNNL,ER_EXAM1_MULT4_FLR_1 ZN,27.87,6.0,1.593E-002,5.716E-004,5.696E-004,0.482,0.000,0.000,0.224,0.000
 ZoneInfiltration Airflow Stats Nominal, ER_EXAM3_MULT4_FLR_1 INFILTRATION,HOSPITAL INFIL_SCH_PNNL,ER_EXAM3_MULT4_FLR_1 ZN,27.87,6.0,1.223E-002,4.387E-004,5.696E-004,0.370,0.000,0.000,0.224,0.000
 ZoneInfiltration Airflow Stats Nominal, ER_NURSESTN_LOBBY_FLR_1 INFILTRATION,HOSPITAL INFIL_SCH_PNNL,ER_NURSESTN_LOBBY_FLR_1 ZN,1235.61,17.7,0.174,1.409E-004,5.696E-004,0.119,0.000,0.000,0.224,0.000
 ZoneInfiltration Airflow Stats Nominal, ER_TRAUMA1_FLR_1 INFILTRATION,HOSPITAL INFIL_SCH_PNNL,ER_TRAUMA1_FLR_1 ZN,27.87,6.0,2.816E-002,1.010E-003,5.696E-004,0.852,0.000,0.000,0.224,0.000
 ZoneInfiltration Airflow Stats Nominal, ER_TRAUMA2_FLR_1 INFILTRATION,HOSPITAL INFIL_SCH_PNNL,ER_TRAUMA2_FLR_1 ZN,27.87,6.0,2.816E-002,1.010E-003,5.696E-004,0.852,0.000,0.000,0.224,0.000
 ZoneInfiltration Airflow Stats Nominal, ER_TRIAGE_MULT4_FLR_1 INFILTRATION,HOSPITAL INFIL_SCH_PNNL,ER_TRIAGE_MULT4_FLR_1 ZN,27.87,6.0,1.593E-002,5.716E-004,5.696E-004,0.482,0.000,0.000,0.224,0.000
 ZoneInfiltration Airflow Stats Nominal, ICU_FLR_2 INFILTRATION,HOSPITAL INFIL_SCH_PNNL,ICU_FLR_2 ZN,617.96,33.3,0.122,1.979E-004,4.510E-004,0.167,0.000,0.000,0.224,0.000
 ZoneInfiltration Airflow Stats Nominal, ICU_NURSESTN_LOBBY_FLR_2 INFILTRATION,HOSPITAL INFIL_SCH_PNNL,ICU_NURSESTN_LOBBY_FLR_2 ZN,668.77,9.6,0.100,1.496E-004,5.696E-004,0.126,0.000,0.000,0.224,0.000
 ZoneInfiltration Airflow Stats Nominal, IC_PATROOM1_MULT5_FLR_2 INFILTRATION,HOSPITAL INFIL_SCH_PNNL,IC_PATROOM1_MULT5_FLR_2 ZN,20.90,1.1,1.112E-002,5.317E-004,2.750E-004,0.448,0.000,0.000,0.224,0.000
 ZoneInfiltration Airflow Stats Nominal, IC_PATROOM2_FLR_2 INFILTRATION,HOSPITAL INFIL_SCH_PNNL,IC_PATROOM2_FLR_2 ZN,27.87,1.5,2.594E-002,9.305E-004,5.696E-004,0.785,0.000,0.000,0.224,0.000
 ZoneInfiltration Airflow Stats Nominal, IC_PATROOM3_MULT6_FLR_2 INFILTRATION,HOSPITAL INFIL_SCH_PNNL,IC_PATROOM3_MULT6_FLR_2 ZN,20.90,1.1,1.112E-002,5.317E-004,2.750E-004,0.448,0.000,0.000,0.224,0.000
 ZoneInfiltration Airflow Stats Nominal, KITCHEN_FLR_5 INFILTRATION,HOSPITAL INFIL_SCH_PNNL,KITCHEN_FLR_5 ZN,929.03,50.0,0.148,1.595E-004,1.246E-004,0.135,0.000,0.000,0.224,0.000
 ZoneInfiltration Airflow Stats Nominal, LOBBY_RECORDS_FLR_1 INFILTRATION,HOSPITAL INFIL_SCH_PNNL,LOBBY_RECORDS_FLR_1 ZN,1474.81,21.2,0.270,1.831E-004,4.047E-004,0.154,0.000,0.000,0.224,0.000
 ZoneInfiltration Airflow Stats Nominal, NURSESTN_LOBBY_FLR_5 INFILTRATION,HOSPITAL INFIL_SCH_PNNL,NURSESTN_LOBBY_FLR_5 ZN,1040.51,14.9,5.928E-002,5.697E-005,5.179E-005,4.805E-002,0.000,0.000,0.224,0.000
 ZoneInfiltration Airflow Stats Nominal, OFFICE1_FLR_5 INFILTRATION,HOSPITAL INFIL_SCH_PNNL,OFFICE1_FLR_5 ZN,69.70,5.3,4.076E-002,5.848E-004,2.886E-004,0.493,0.000,0.000,0.224,0.000
 ZoneInfiltration Airflow Stats Nominal, OFFICE1_MULT4_FLR_1 INFILTRATION,HOSPITAL INFIL_SCH_PNNL,OFFICE1_MULT4_FLR_1 ZN,13.94,1.1,7.410E-003,5.317E-004,5.696E-004,0.448,0.000,0.000,0.224,0.000
 ZoneInfiltration Airflow Stats Nominal, OFFICE2_MULT5_FLR_5 INFILTRATION,HOSPITAL INFIL_SCH_PNNL,OFFICE2_MULT5_FLR_5 ZN,69.66,5.2,1.852E-002,2.659E-004,1.813E-004,0.224,0.000,0.000,0.224,0.000
 ZoneInfiltration Airflow Stats Nominal, OFFICE3_FLR_5 INFILTRATION,HOSPITAL INFIL_SCH_PNNL,OFFICE3_FLR_5 ZN,69.68,5.3,4.076E-002,5.849E-004,2.886E-004,0.493,0.000,0.000,0.224,0.000
 ZoneInfiltration Airflow Stats Nominal, OFFICE4_MULT6_FLR_5 INFILTRATION,HOSPITAL INFIL_SCH_PNNL,OFFICE4_MULT6_FLR_5 ZN,13.94,1.1,7.410E-003,5.317E-004,2.750E-004,0.448,0.000,0.000,0.224,0.000
 ZoneInfiltration Airflow Stats Nominal, OR1_FLR_2 INFILTRATION,HOSPITAL INFIL_SCH_PNNL,OR1_FLR_2 ZN,55.74,3.0,3.705E-002,6.647E-004,5.696E-004,0.561,0.000,0.000,0.224,0.000
 ZoneInfiltration Airflow Stats Nominal, OR2_MULT5_FLR_2 INFILTRATION,HOSPITAL INFIL_SCH_PNNL,OR2_MULT5_FLR_2 ZN,55.74,3.0,1.482E-002,2.659E-004,5.696E-004,0.224,0.000,0.000,0.224,0.000
 ZoneInfiltration Airflow Stats Nominal, OR3_FLR_2 INFILTRATION,HOSPITAL INFIL_SCH_PNNL,OR3_FLR_2 ZN,55.74,3.0,2.223E-002,3.988E-004,5.696E-004,0.336,0.000,0.000,0.224,0.000
 ZoneInfiltration Airflow Stats Nominal, OR_NURSESTN_LOBBY_FLR_2 INFILTRATION,HOSPITAL INFIL_SCH_PNNL,OR_NURSESTN_LOBBY_FLR_2 ZN,1012.64,14.5,0.204,2.012E-004,5.696E-004,0.170,0.000,0.000,0.224,0.000
 ZoneInfiltration Airflow Stats Nominal, PATROOM1_MULT10_FLR_3 INFILTRATION,HOSPITAL INFIL_SCH_PNNL,PATROOM1_MULT10_FLR_3 ZN,20.90,1.1,1.112E-002,5.317E-004,5.696E-004,0.448,0.000,0.000,0.224,0.000
 ZoneInfiltration Airflow Stats Nominal, PATROOM1_MULT10_FLR_4 INFILTRATION,HOSPITAL INFIL_SCH_PNNL,PATROOM1_MULT10_FLR_4 ZN,20.90,1.1,1.112E-002,5.317E-004,5.696E-004,0.448,0.000,0.000,0.224,0.000
 ZoneInfiltration Airflow Stats Nominal, PATROOM2_FLR_3 INFILTRATION,HOSPITAL INFIL_SCH_PNNL,PATROOM2_FLR_3 ZN,34.84,1.9,2.964E-002,8.508E-004,5.696E-004,0.718,0.000,0.000,0.224,0.000
 ZoneInfiltration Airflow Stats Nominal, PATROOM2_FLR_4 INFILTRATION,HOSPITAL INFIL_SCH_PNNL,PATROOM2_FLR_4 ZN,34.84,1.9,2.964E-002,8.508E-004,5.696E-004,0.718,0.000,0.000,0.224,0.000
 ZoneInfiltration Airflow Stats Nominal, PATROOM3_MULT10_FLR_3 INFILTRATION,HOSPITAL INFIL_SCH_PNNL,PATROOM3_MULT10_FLR_3 ZN,20.21,1.1,1.075E-002,5.317E-004,5.696E-004,0.448,0.000,0.000,0.224,0.000
 ZoneInfiltration Airflow Stats Nominal, PATROOM3_MULT10_FLR_4 INFILTRATION,HOSPITAL INFIL_SCH_PNNL,PATROOM3_MULT10_FLR_4 ZN,20.21,1.1,1.075E-002,5.317E-004,5.696E-004,0.448,0.000,0.000,0.224,0.000
 ZoneInfiltration Airflow Stats Nominal, PATROOM4_FLR_3 INFILTRATION,HOSPITAL INFIL_SCH_PNNL,PATROOM4_FLR_3 ZN,34.84,1.9,2.964E-002,8.508E-004,5.696E-004,0.718,0.000,0.000,0.224,0.000
 ZoneInfiltration Airflow Stats Nominal, PATROOM4_FLR_4 INFILTRATION,HOSPITAL INFIL_SCH_PNNL,PATROOM4_FLR_4 ZN,34.84,1.9,2.964E-002,8.508E-004,5.696E-004,0.718,0.000,0.000,0.224,0.000
 ZoneInfiltration Airflow Stats Nominal, PATROOM5_MULT10_FLR_3 INFILTRATION,HOSPITAL INFIL_SCH_PNNL,PATROOM5_MULT10_FLR_3 ZN,20.90,1.1,1.112E-002,5.317E-004,5.696E-004,0.448,0.000,0.000,0.224,0.000
 ZoneInfiltration Airflow Stats Nominal, PATROOM5_MULT10_FLR_4 INFILTRATION,HOSPITAL INFIL_SCH_PNNL,PATROOM5_MULT10_FLR_4 ZN,20.90,1.1,1.112E-002,5.317E-004,5.696E-004,0.448,0.000,0.000,0.224,0.000
 ZoneInfiltration Airflow Stats Nominal, PATROOM6_FLR_3 INFILTRATION,HOSPITAL INFIL_SCH_PNNL,PATROOM6_FLR_3 ZN,27.87,1.5,2.594E-002,9.305E-004,5.696E-004,0.785,0.000,0.000,0.224,0.000
 ZoneInfiltration Airflow Stats Nominal, PATROOM6_FLR_4 INFILTRATION,HOSPITAL INFIL_SCH_PNNL,PATROOM6_FLR_4 ZN,27.87,1.5,2.594E-002,9.305E-004,5.696E-004,0.785,0.000,0.000,0.224,0.000
 ZoneInfiltration Airflow Stats Nominal, PATROOM7_MULT10_FLR_3 INFILTRATION,HOSPITAL INFIL_SCH_PNNL,PATROOM7_MULT10_FLR_3 ZN,20.21,1.1,1.075E-002,5.317E-004,5.696E-004,0.448,0.000,0.000,0.224,0.000
 ZoneInfiltration Airflow Stats Nominal, PATROOM7_MULT10_FLR_4 INFILTRATION,HOSPITAL INFIL_SCH_PNNL,PATROOM7_MULT10_FLR_4 ZN,20.21,1.1,1.075E-002,5.317E-004,5.696E-004,0.448,0.000,0.000,0.224,0.000
 ZoneInfiltration Airflow Stats Nominal, PATROOM8_FLR_3 INFILTRATION,HOSPITAL INFIL_SCH_PNNL,PATROOM8_FLR_3 ZN,27.87,1.5,2.594E-002,9.305E-004,5.696E-004,0.785,0.000,0.000,0.224,0.000
 ZoneInfiltration Airflow Stats Nominal, PATROOM8_FLR_4 INFILTRATION,HOSPITAL INFIL_SCH_PNNL,PATROOM8_FLR_4 ZN,27.87,1.5,2.594E-002,9.305E-004,5.696E-004,0.785,0.000,0.000,0.224,0.000
! <AirFlow Model>, Simple
 AirFlow Model, Simple
! <RoomAir Model>, Zone Name, Mixing/Mundt/UCSDDV/UCSDCV/UCSDUFI/UCSDUFE/User Defined
RoomAir Model,BASEMENT ZN,Mixing/Well-Stirred
RoomAir Model,CORRIDOR_FLR_1 ZN,Mixing/Well-Stirred
RoomAir Model,CORRIDOR_FLR_2 ZN,Mixing/Well-Stirred
RoomAir Model,CORRIDOR_FLR_5 ZN,Mixing/Well-Stirred
RoomAir Model,CORRIDOR_NW_FLR_3 ZN,Mixing/Well-Stirred
RoomAir Model,CORRIDOR_NW_FLR_4 ZN,Mixing/Well-Stirred
RoomAir Model,CORRIDOR_SE_FLR_3 ZN,Mixing/Well-Stirred
RoomAir Model,CORRIDOR_SE_FLR_4 ZN,Mixing/Well-Stirred
RoomAir Model,DINING_FLR_5 ZN,Mixing/Well-Stirred
RoomAir Model,ER_EXAM1_MULT4_FLR_1 ZN,Mixing/Well-Stirred
RoomAir Model,ER_EXAM3_MULT4_FLR_1 ZN,Mixing/Well-Stirred
RoomAir Model,ER_NURSESTN_LOBBY_FLR_1 ZN,Mixing/Well-Stirred
RoomAir Model,ER_TRAUMA1_FLR_1 ZN,Mixing/Well-Stirred
RoomAir Model,ER_TRAUMA2_FLR_1 ZN,Mixing/Well-Stirred
RoomAir Model,ER_TRIAGE_MULT4_FLR_1 ZN,Mixing/Well-Stirred
RoomAir Model,ICU_FLR_2 ZN,Mixing/Well-Stirred
RoomAir Model,ICU_NURSESTN_LOBBY_FLR_2 ZN,Mixing/Well-Stirred
RoomAir Model,IC_PATROOM1_MULT5_FLR_2 ZN,Mixing/Well-Stirred
RoomAir Model,IC_PATROOM2_FLR_2 ZN,Mixing/Well-Stirred
RoomAir Model,IC_PATROOM3_MULT6_FLR_2 ZN,Mixing/Well-Stirred
RoomAir Model,KITCHEN_FLR_5 ZN,Mixing/Well-Stirred
RoomAir Model,LAB_FLR_3 ZN,Mixing/Well-Stirred
RoomAir Model,LAB_FLR_4 ZN,Mixing/Well-Stirred
RoomAir Model,LOBBY_RECORDS_FLR_1 ZN,Mixing/Well-Stirred
RoomAir Model,NURSESTN_LOBBY_FLR_3 ZN,Mixing/Well-Stirred
RoomAir Model,NURSESTN_LOBBY_FLR_4 ZN,Mixing/Well-Stirred
RoomAir Model,NURSESTN_LOBBY_FLR_5 ZN,Mixing/Well-Stirred
RoomAir Model,OFFICE1_FLR_5 ZN,Mixing/Well-Stirred
RoomAir Model,OFFICE1_MULT4_FLR_1 ZN,Mixing/Well-Stirred
RoomAir Model,OFFICE2_MULT5_FLR_5 ZN,Mixing/Well-Stirred
RoomAir Model,OFFICE3_FLR_5 ZN,Mixing/Well-Stirred
RoomAir Model,OFFICE4_MULT6_FLR_5 ZN,Mixing/Well-Stirred
RoomAir Model,OR1_FLR_2 ZN,Mixing/Well-Stirred
RoomAir Model,OR2_MULT5_FLR_2 ZN,Mixing/Well-Stirred
RoomAir Model,OR3_FLR_2 ZN,Mixing/Well-Stirred
RoomAir Model,OR4_FLR_2 ZN,Mixing/Well-Stirred
RoomAir Model,OR_NURSESTN_LOBBY_FLR_2 ZN,Mixing/Well-Stirred
RoomAir Model,PATROOM1_MULT10_FLR_3 ZN,Mixing/Well-Stirred
RoomAir Model,PATROOM1_MULT10_FLR_4 ZN,Mixing/Well-Stirred
RoomAir Model,PATROOM2_FLR_3 ZN,Mixing/Well-Stirred
RoomAir Model,PATROOM2_FLR_4 ZN,Mixing/Well-Stirred
RoomAir Model,PATROOM3_MULT10_FLR_3 ZN,Mixing/Well-Stirred
RoomAir Model,PATROOM3_MULT10_FLR_4 ZN,Mixing/Well-Stirred
RoomAir Model,PATROOM4_FLR_3 ZN,Mixing/Well-Stirred
RoomAir Model,PATROOM4_FLR_4 ZN,Mixing/Well-Stirred
RoomAir Model,PATROOM5_MULT10_FLR_3 ZN,Mixing/Well-Stirred
RoomAir Model,PATROOM5_MULT10_FLR_4 ZN,Mixing/Well-Stirred
RoomAir Model,PATROOM6_FLR_3 ZN,Mixing/Well-Stirred
RoomAir Model,PATROOM6_FLR_4 ZN,Mixing/Well-Stirred
RoomAir Model,PATROOM7_MULT10_FLR_3 ZN,Mixing/Well-Stirred
RoomAir Model,PATROOM7_MULT10_FLR_4 ZN,Mixing/Well-Stirred
RoomAir Model,PATROOM8_FLR_3 ZN,Mixing/Well-Stirred
RoomAir Model,PATROOM8_FLR_4 ZN,Mixing/Well-Stirred
RoomAir Model,PHYSTHERAPY_FLR_3 ZN,Mixing/Well-Stirred
RoomAir Model,RADIOLOGY_FLR_4 ZN,Mixing/Well-Stirred
! <AirflowNetwork Model:Control>, No Multizone or Distribution/Multizone with Distribution/Multizone without Distribution/Multizone with Distribution only during Fan Operation
AirflowNetwork Model:Control,NoMultizoneOrDistribution
! <Zone Volume Capacitance Multiplier>, Sensible Heat Capacity Multiplier, Moisture Capacity Multiplier, Carbon Dioxide Capacity Multiplier, Generic Contaminant Capacity Multiplier
Zone Volume Capacitance Multiplier,   1.000 ,   1.000,   1.000,   1.000
! <Load Timesteps in Zone Design Calculation Averaging Window>, Value
 Load Timesteps in Zone Design Calculation Averaging Window,    6
! <Heating Sizing Factor Information>, Sizing Factor ID, Value
 Heating Sizing Factor Information, Global,   1.0000    
! <Cooling Sizing Factor Information>, Sizing Factor ID, Value
 Cooling Sizing Factor Information, Global,   1.0000    
! <Sky Daylight Factors>, MonthAndDay, Zone Name, Window Name, Reference Point, Daylight Factor
 Sky Daylight Factors,Clear Sky,07/21,LOBBY_RECORDS_FLR_1 ZN,LOBBY_RECORDS_FLR_1_WALL_2_WEST,LOBBY_RECORDS_FLR_1 DAYLT SENSOR 1,2.8978E-002
 Sky Daylight Factors,Clear Turbid Sky,07/21,LOBBY_RECORDS_FLR_1 ZN,LOBBY_RECORDS_FLR_1_WALL_2_WEST,LOBBY_RECORDS_FLR_1 DAYLT SENSOR 1,2.7394E-002
[...]
 Warmup Convergence Information,PATROOM5_MULT10_FLR_3 ZN,SizingPeriod: EL PASO INTERNATIONAL AP  UT ANN HTG 99.6% CONDNS DB HVAC Sizing Pass 1,2.9013372276E-003,1.1949154926E-003,Pass,Pass,4.6805872091E-003,2.8421631949E-003,Pass,Pass
 Warmup Convergence Information,PATROOM5_MULT10_FLR_4 ZN,SizingPeriod: EL PASO INTERNATIONAL AP  UT ANN HTG 99.6% CONDNS DB HVAC Sizing Pass 1,1.5246530189E-005,4.3679457491E-006,Pass,Pass,1.6731702493E-006,4.7907367317E-007,Pass,Pass
 Warmup Convergence Information,PATROOM6_FLR_3 ZN,SizingPeriod: EL PASO INTERNATIONAL AP  UT ANN HTG 99.6% CONDNS DB HVAC Sizing Pass 1,2.3050429592E-006,1.4908510714E-006,Pass,Pass,2.0505270220E-007,1.3311443992E-007,Pass,Pass
 Warmup Convergence Information,PATROOM6_FLR_4 ZN,SizingPeriod: EL PASO INTERNATIONAL AP  UT ANN HTG 99.6% CONDNS DB HVAC Sizing Pass 1,3.2256273473E-003,1.9000168910E-003,Pass,Pass,4.6181991971E-003,1.3866573829E-003,Pass,Pass
 Warmup Convergence Information,PATROOM7_MULT10_FLR_3 ZN,SizingPeriod: EL PASO INTERNATIONAL AP  UT ANN HTG 99.6% CONDNS DB HVAC Sizing Pass 1,2.0263465663E-003,1.3017665128E-003,Pass,Pass,4.7388868748E-003,1.6293812490E-003,Pass,Pass
 Warmup Convergence Information,PATROOM7_MULT10_FLR_4 ZN,SizingPeriod: EL PASO INTERNATIONAL AP  UT ANN HTG 99.6% CONDNS DB HVAC Sizing Pass 1,2.8921301597E-003,1.0003756374E-005,Pass,Pass,6.7483978546E-003,2.2837750967E-005,Pass,Pass
 Warmup Convergence Information,PATROOM8_FLR_3 ZN,SizingPeriod: EL PASO INTERNATIONAL AP  UT ANN HTG 99.6% CONDNS DB HVAC Sizing Pass 1,2.0955829171E-003,8.1648628935E-006,Pass,Pass,3.1437808834E-003,5.1189008134E-006,Pass,Pass
 Warmup Convergence Information,PATROOM8_FLR_4 ZN,SizingPeriod: EL PASO INTERNATIONAL AP  UT ANN HTG 99.6% CONDNS DB HVAC Sizing Pass 1,8.4537316485E-004,1.3235023907E-003,Pass,Pass,6.6077835429E-004,1.2242172108E-003,Pass,Pass
 Warmup Convergence Information,PHYSTHERAPY_FLR_3 ZN,SizingPeriod: EL PASO INTERNATIONAL AP  UT ANN HTG 99.6% CONDNS DB HVAC Sizing Pass 1,6.8887859353E-004,4.0200422524E-004,Pass,Pass,8.4764377149E-003,5.6160443746E-003,Pass,Pass
 Warmup Convergence Information,RADIOLOGY_FLR_4 ZN,SizingPeriod: EL PASO INTERNATIONAL AP  UT ANN HTG 99.6% CONDNS DB HVAC Sizing Pass 1,1.4615251971E-005,1.0511646607E-005,Pass,Pass,6.7128975714E-005,3.7292779663E-005,Pass,Pass
! <Plant Coincident Sizing Algorithm>,Plant Loop Name,Sizing Pass {#},Measured Mass Flow{kg/s},Measured Demand {W},Demand Calculated Mass Flow{kg/s},Sizes Changed {Yes/No},Previous Volume Flow Rate {m3/s},New Volume Flow Rate {m3/s},Demand Check Applied {Yes/No},Sizing Factor {},Normalized Change {},Specific Heat{J/kg-K},Density {kg/m3}
Plant Coincident Sizing Algorithm,CONDENSER WATER LOOP,1,74.6739756,1792721.95,76.8688262,Yes,7.468159E-002,7.687667E-002,Yes,1.0000,2.939244E-002,4197.9300,999.8980
Environment:Design Day Data,38.10,13.00,DefaultMultipliers,Wetbulb,18.10,{C},100058,280,3.9,0.00,No,No
Environment:Design Day Misc,202,1084.4,0.2082,0.1365,1.0,-6.23,20.6,ASHRAETau
 Component Sizing Information, PlantLoop, CHILLED WATER LOOP, Maximum Loop Flow Rate [m3/s], 6.23811E-002
 Component Sizing Information, PlantLoop, CHILLED WATER LOOP, Plant Loop Volume [m3], 7.48573
 Component Sizing Information, PlantLoop, CONDENSER WATER LOOP, Maximum Loop Flow Rate [m3/s], 7.68767E-002
 Component Sizing Information, PlantLoop, CONDENSER WATER LOOP, Plant Loop Volume [m3], 9.22520
 Component Sizing Information, PlantLoop, HOT WATER LOOP, Maximum Loop Flow Rate [m3/s], 3.20148E-002
 Component Sizing Information, PlantLoop, HOT WATER LOOP, Plant Loop Volume [m3], 3.84177
 Component Sizing Information, PlantLoop, LAUNDRY SERVICE WATER LOOP, Maximum Loop Flow Rate [m3/s], 1.76653E-004
 Component Sizing Information, PlantLoop, LAUNDRY SERVICE WATER LOOP, Plant Loop Volume [m3], 2.11983E-002
 Component Sizing Information, PlantLoop, MAIN SERVICE WATER LOOP, Maximum Loop Flow Rate [m3/s], 3.07123E-003
 Component Sizing Information, PlantLoop, MAIN SERVICE WATER LOOP, Plant Loop Volume [m3], 0.36855
 Component Sizing Information, PlantLoop, SERVICE WATER LOOP, Maximum Loop Flow Rate [m3/s], 3.65923E-005
 Component Sizing Information, PlantLoop, SERVICE WATER LOOP, Plant Loop Volume [m3], 4.39108E-003
 Component Sizing Information, Pump:VariableSpeed, CHILLED WATER LOOP SECONDARY PUMP, Design Flow Rate [m3/s], 6.23811E-002
 Component Sizing Information, Pump:VariableSpeed, CHILLED WATER LOOP SECONDARY PUMP, Design Power Consumption [W], 11642.18517
 Component Sizing Information, Chiller:Electric:EIR, 90.1-2010 WATERCOOLED  CENTRIFUGAL CHILLER 0 189TONS 0.6KW/TON, Design Size Reference Chilled Water Flow Rate [m3/s], 3.11905E-002
 Component Sizing Information, Chiller:Electric:EIR, 90.1-2010 WATERCOOLED  CENTRIFUGAL CHILLER 0 189TONS 0.6KW/TON, Design Size Reference Capacity [W], 734619.90130
 Component Sizing Information, Chiller:Electric:EIR, 90.1-2010 WATERCOOLED  CENTRIFUGAL CHILLER 0 189TONS 0.6KW/TON, Design Size Reference Condenser Fluid Flow Rate [m3/s], 3.73408E-002
! <Chiller Standard Rating Information>, Component Type, Component Name, IPLV in SI Units {W/W}, IPLV in IP Units {Btu/W-h}
 Chiller Standard Rating Information, Chiller:Electric:EIR, 90.1-2010 WATERCOOLED  CENTRIFUGAL CHILLER 0 189TONS 0.6KW/TON, 8.52, 29.06
 Component Sizing Information, Chiller:Electric:EIR, 90.1-2010 WATERCOOLED  CENTRIFUGAL CHILLER 1 189TONS 0.6KW/TON, Design Size Reference Chilled Water Flow Rate [m3/s], 3.11905E-002
 Component Sizing Information, Chiller:Electric:EIR, 90.1-2010 WATERCOOLED  CENTRIFUGAL CHILLER 1 189TONS 0.6KW/TON, Design Size Reference Capacity [W], 734619.90130
 Component Sizing Information, Chiller:Electric:EIR, 90.1-2010 WATERCOOLED  CENTRIFUGAL CHILLER 1 189TONS 0.6KW/TON, Design Size Reference Condenser Fluid Flow Rate [m3/s], 3.73408E-002
 Chiller Standard Rating Information, Chiller:Electric:EIR, 90.1-2010 WATERCOOLED  CENTRIFUGAL CHILLER 1 189TONS 0.6KW/TON, 8.52, 29.06
 Component Sizing Information, Pump:ConstantSpeed, CHILLED WATER LOOP PRIMARY PUMP, Design Flow Rate [m3/s], 6.23811E-002
 Component Sizing Information, Pump:ConstantSpeed, CHILLED WATER LOOP PRIMARY PUMP, Design Power Consumption [W], 4006.47266
 Component Sizing Information, HeatExchanger:FluidToFluid, HX FOR BOOSTER WATER HEATING, Loop Supply Side Design Fluid Flow Rate [m3/s], 3.65923E-005
 Component Sizing Information, HeatExchanger:FluidToFluid, HX FOR BOOSTER WATER HEATING, Loop Demand Side Design Fluid Flow Rate [m3/s], 3.65923E-005
 Component Sizing Information, HeatExchanger:FluidToFluid, HX FOR BOOSTER WATER HEATING, Heat Exchanger U-Factor Times Area Value [W/C], 44.59248
 Component Sizing Information, HeatExchanger:FluidToFluid, HX FOR BOOSTER WATER HEATING, Loop-to-loop Temperature Difference Used to Size Heat Exchanger U-Factor Times Area Value [C], 17.22222
 Component Sizing Information, WaterHeater:Mixed, 6.0GAL ELECTRICITY BOOSTER WATER HEATER - 10KBTU/HR 1.0 THERM EFF, Use Side Design Flow Rate [m3/s], 3.65923E-005
 Component Sizing Information, Pump:VariableSpeed, BOOSTER WATER LOOP PUMP, Design Flow Rate [m3/s], 3.65923E-005
 Component Sizing Information, PlantComponent:TemperatureSource, MAINS WATER MAKEUP FOR SWH BOOSTER, Design Size Design Fluid Flow Rate [m3/s], 3.07123E-003
 Component Sizing Information, CoolingTower:VariableSpeed, CENTRIFUGAL VARIABLE SPEED FAN OPEN COOLING TOWER 38.2 GPM/HP, Design Water Flow Rate [m3/s], 7.68767E-002
 Component Sizing Information, CoolingTower:VariableSpeed, CENTRIFUGAL VARIABLE SPEED FAN OPEN COOLING TOWER 38.2 GPM/HP, Design Air Flow Rate [m3/s], 60.97716
 Component Sizing Information, CoolingTower:VariableSpeed, CENTRIFUGAL VARIABLE SPEED FAN OPEN COOLING TOWER 38.2 GPM/HP, Nominal Capacity [W], 1776014.55443
 Component Sizing Information, CoolingTower:VariableSpeed, CENTRIFUGAL VARIABLE SPEED FAN OPEN COOLING TOWER 38.2 GPM/HP, Air Flow Rate in free convection regime [m3/s], 12.19543
 Component Sizing Information, CoolingTower:VariableSpeed, CENTRIFUGAL VARIABLE SPEED FAN OPEN COOLING TOWER 38.2 GPM/HP, Tower capacity in free convection regime at design conditions [W], 222001.81930
 Component Sizing Information, Pump:ConstantSpeed, CONDENSER WATER LOOP CONSTANT PUMP, Design Flow Rate [m3/s], 7.68767E-002
 Component Sizing Information, Pump:ConstantSpeed, CONDENSER WATER LOOP CONSTANT PUMP, Design Power Consumption [W], 15743.78047
 Component Sizing Information, Boiler:HotWater, BOILER 4269KBTU/HR 0.8 THERMAL EFF, Design Size Nominal Capacity [W], 1463677.41077
 Component Sizing Information, Boiler:HotWater, BOILER 4269KBTU/HR 0.8 THERMAL EFF, Design Size Design Water Flow Rate [m3/s], 3.20148E-002
 Component Sizing Information, Pump:VariableSpeed, HOT WATER LOOP PUMP, Design Flow Rate [m3/s], 3.20148E-002
 Component Sizing Information, Pump:VariableSpeed, HOT WATER LOOP PUMP, Design Power Consumption [W], 8027.37401
 Component Sizing Information, WaterHeater:Mixed, 300GAL NATURAL GAS WATER HEATER - 300KBTU/HR 0.804 THERM EFF, Use Side Design Flow Rate [m3/s], 1.76653E-004
 Component Sizing Information, Pump:VariableSpeed, LAUNDRY SERVICE WATER LOOP WATER MAINS PRESSURE DRIVEN, Design Flow Rate [m3/s], 1.76653E-004
 Component Sizing Information, Pump:VariableSpeed, LAUNDRY SERVICE WATER LOOP WATER MAINS PRESSURE DRIVEN, Design Power Consumption [W], 2.64886E-007
 Component Sizing Information, WaterHeater:Mixed, 600GAL NATURAL GAS WATER HEATER - 600KBTU/HR 0.803 THERM EFF, Use Side Design Flow Rate [m3/s], 3.07123E-003
 Component Sizing Information, Pump:ConstantSpeed, MAIN SERVICE WATER LOOP CIRCULATOR PUMP, Design Flow Rate [m3/s], 3.07123E-003
 Component Sizing Information, Pump:ConstantSpeed, MAIN SERVICE WATER LOOP CIRCULATOR PUMP, Design Power Consumption [W], 137.65506
Environment:Design Day Data,-5.20,0.00,DefaultMultipliers,Wetbulb,-5.20,{C},100058,20,2.2,0.00,No,No
Environment:Design Day Misc,355,1232.8,0.1424,5.7719E-002,1.0,2.45,-23.5,ASHRAEClearSky
Environment,RUN PERIOD 1,WeatherFileRunPeriod,01/01/2006,12/31/2006,Sunday,365,Use RunPeriod Specified Day,No,No,No,Yes,Yes,Clark and Allen
Environment:Design Day Data,38.10,13.00,DefaultMultipliers,Wetbulb,18.10,{C},100058,280,3.9,0.00,No,No
Environment:Design Day Misc,202,1084.4,0.2082,0.1365,1.0,-6.23,20.6,ASHRAETau
Environment:Design Day Data,-5.20,0.00,DefaultMultipliers,Wetbulb,-5.20,{C},100058,20,2.2,0.00,No,No
Environment:Design Day Misc,355,1232.8,0.1424,5.7719E-002,1.0,2.45,-23.5,ASHRAEClearSky
Environment,RUN PERIOD 1,WeatherFileRunPeriod,01/01/2006,12/31/2006,Sunday,365,Use RunPeriod Specified Day,No,No,No,Yes,Yes,Clark and Allen
Environment:Daylight Saving,Yes,InputFile,03/12,11/05
Environment:WarmupDays,  5
 Warmup Convergence Information,BASEMENT ZN,RunPeriod: RUN PERIOD 1,1.3758271699E-002,6.2297721213E-002,Pass,Pass,5.7782798546E-002,0.3126221354,Pass,Pass
 Warmup Convergence Information,CORRIDOR_FLR_1 ZN,RunPeriod: RUN PERIOD 1,4.8136252162E-003,6.0257139792E-003,Pass,Pass,7.3158146112E-004,1.0168550212E-003,Pass,Pass
 Warmup Convergence Information,CORRIDOR_FLR_2 ZN,RunPeriod: RUN PERIOD 1,3.5991595631E-003,4.4898962136E-003,Pass,Pass,5.4531274966E-004,7.9572054014E-004,Pass,Pass
 Warmup Convergence Information,CORRIDOR_FLR_5 ZN,RunPeriod: RUN PERIOD 1,1.3441777587E-002,7.2065840096E-002,Pass,Pass,0.2342075660,0.6982610574,Pass,Pass
 Warmup Convergence Information,CORRIDOR_NW_FLR_3 ZN,RunPeriod: RUN PERIOD 1,5.5622431937E-003,4.2400551090E-003,Pass,Pass,9.5316775946E-004,7.7720101286E-004,Pass,Pass
 Warmup Convergence Information,CORRIDOR_NW_FLR_4 ZN,RunPeriod: RUN PERIOD 1,5.9345374839E-003,3.5546567210E-002,Pass,Pass,0.2695724154,2.0703092257,Pass,Pass
 Warmup Convergence Information,CORRIDOR_SE_FLR_3 ZN,RunPeriod: RUN PERIOD 1,5.3370125002E-003,4.2903985533E-003,Pass,Pass,9.3375279899E-004,8.0071804925E-004,Pass,Pass
 Warmup Convergence Information,CORRIDOR_SE_FLR_4 ZN,RunPeriod: RUN PERIOD 1,3.6522387351E-003,1.8184509710E-002,Pass,Pass,3.6760239557E-002,9.5897007574E-002,Pass,Pass
 Warmup Convergence Information,DINING_FLR_5 ZN,RunPeriod: RUN PERIOD 1,1.8466275539E-002,5.1532430304E-002,Pass,Pass,2.5679916839E-002,7.0974377719E-002,Pass,Pass
 Warmup Convergence Information,ER_EXAM1_MULT4_FLR_1 ZN,RunPeriod: RUN PERIOD 1,1.1700131833E-002,5.5527895745E-002,Pass,Pass,9.6739388568E-003,3.1576869535E-002,Pass,Pass
 Warmup Convergence Information,ER_EXAM3_MULT4_FLR_1 ZN,RunPeriod: RUN PERIOD 1,1.1613310147E-002,5.6428119408E-002,Pass,Pass,1.0493911067E-002,3.3896671813E-002,Pass,Pass
 Warmup Convergence Information,ER_NURSESTN_LOBBY_FLR_1 ZN,RunPeriod: RUN PERIOD 1,1.0960550214E-002,2.0808842477E-002,Pass,Pass,1.3802411808E-003,2.8447928377E-003,Pass,Pass
 Warmup Convergence Information,ER_TRAUMA1_FLR_1 ZN,RunPeriod: RUN PERIOD 1,2.3789786305E-002,0.1319346078,Pass,Pass,2.0215662895E-002,6.8327947988E-002,Pass,Pass
 Warmup Convergence Information,ER_TRAUMA2_FLR_1 ZN,RunPeriod: RUN PERIOD 1,2.4797228924E-002,0.1397562880,Pass,Pass,2.1326096468E-002,7.6326658035E-002,Pass,Pass
 Warmup Convergence Information,ER_TRIAGE_MULT4_FLR_1 ZN,RunPeriod: RUN PERIOD 1,1.2955017505E-002,5.2547838260E-002,Pass,Pass,9.1766814515E-003,2.6990076725E-002,Pass,Pass
 Warmup Convergence Information,ICU_FLR_2 ZN,RunPeriod: RUN PERIOD 1,1.3802090789E-002,6.9281971043E-002,Pass,Pass,1.3352348025E-002,3.9580781788E-002,Pass,Pass
 Warmup Convergence Information,ICU_NURSESTN_LOBBY_FLR_2 ZN,RunPeriod: RUN PERIOD 1,1.0437958025E-002,2.4556650236E-002,Pass,Pass,1.4634803839E-003,3.7499221888E-003,Pass,Pass
 Warmup Convergence Information,IC_PATROOM1_MULT5_FLR_2 ZN,RunPeriod: RUN PERIOD 1,2.1851982232E-002,0.1028848690,Pass,Pass,4.5117228126E-002,0.1503072820,Pass,Pass
 Warmup Convergence Information,IC_PATROOM2_FLR_2 ZN,RunPeriod: RUN PERIOD 1,3.1744982565E-002,0.1748026136,Pass,Pass,0.2146730019,0.5317621370,Pass,Pass
 Warmup Convergence Information,IC_PATROOM3_MULT6_FLR_2 ZN,RunPeriod: RUN PERIOD 1,2.4787502476E-002,0.1083167002,Pass,Pass,4.9291372599E-002,9.8303155524E-002,Pass,Pass
 Warmup Convergence Information,KITCHEN_FLR_5 ZN,RunPeriod: RUN PERIOD 1,1.6283599455E-002,5.7844264662E-002,Pass,Pass,4.0744461725E-003,1.6979842260E-002,Pass,Pass
 Warmup Convergence Information,LAB_FLR_3 ZN,RunPeriod: RUN PERIOD 1,1.5654521167E-002,8.4019262967E-002,Pass,Pass,1.5137422114E-002,5.7024241537E-002,Pass,Pass
 Warmup Convergence Information,LAB_FLR_4 ZN,RunPeriod: RUN PERIOD 1,1.7779026313E-002,9.6227566182E-002,Pass,Pass,1.8585138074E-002,7.8102769996E-002,Pass,Pass
 Warmup Convergence Information,LOBBY_RECORDS_FLR_1 ZN,RunPeriod: RUN PERIOD 1,1.0725903722E-002,5.5063269218E-002,Pass,Pass,0.2512525405,0.5207574424,Pass,Pass
 Warmup Convergence Information,NURSESTN_LOBBY_FLR_3 ZN,RunPeriod: RUN PERIOD 1,5.1428946707E-003,9.5891285593E-003,Pass,Pass,6.4009321372E-004,1.2651118427E-003,Pass,Pass
 Warmup Convergence Information,NURSESTN_LOBBY_FLR_4 ZN,RunPeriod: RUN PERIOD 1,5.6097470310E-003,9.4175062962E-003,Pass,Pass,7.2923311604E-004,1.2987302543E-003,Pass,Pass
 Warmup Convergence Information,NURSESTN_LOBBY_FLR_5 ZN,RunPeriod: RUN PERIOD 1,1.2961691768E-002,1.3467314281E-002,Pass,Pass,2.1023074221E-003,2.2682670141E-003,Pass,Pass
 Warmup Convergence Information,OFFICE1_FLR_5 ZN,RunPeriod: RUN PERIOD 1,3.6017328682E-002,0.1888419839,Pass,Pass,8.5637589377E-002,0.2533553489,Pass,Pass
 Warmup Convergence Information,OFFICE1_MULT4_FLR_1 ZN,RunPeriod: RUN PERIOD 1,2.1389449728E-002,0.1141430229,Pass,Pass,0.2241443704,0.6783269258,Pass,Pass
 Warmup Convergence Information,OFFICE2_MULT5_FLR_5 ZN,RunPeriod: RUN PERIOD 1,2.4919612996E-002,0.1322907664,Pass,Pass,0.5747808432,2.9817880947,Pass,Pass
 Warmup Convergence Information,OFFICE3_FLR_5 ZN,RunPeriod: RUN PERIOD 1,4.0772064770E-002,0.2152573115,Pass,Pass,0.1218079880,0.4546040077,Pass,Pass
 Warmup Convergence Information,OFFICE4_MULT6_FLR_5 ZN,RunPeriod: RUN PERIOD 1,3.4138115551E-002,0.1877990607,Pass,Pass,7.3894437878E-002,0.2142825852,Pass,Pass
 Warmup Convergence Information,OR1_FLR_2 ZN,RunPeriod: RUN PERIOD 1,1.1540036663E-002,2.9550824170E-002,Pass,Pass,8.5770440539E-003,3.2969194224E-002,Pass,Pass
 Warmup Convergence Information,OR2_MULT5_FLR_2 ZN,RunPeriod: RUN PERIOD 1,1.1990566546E-002,7.1444936281E-002,Pass,Pass,1.3912973888E-002,5.8199908654E-002,Pass,Pass
 Warmup Convergence Information,OR3_FLR_2 ZN,RunPeriod: RUN PERIOD 1,5.5110191794E-003,3.8338363502E-002,Pass,Pass,1.1556375361E-002,4.4861545688E-002,Pass,Pass
 Warmup Convergence Information,OR4_FLR_2 ZN,RunPeriod: RUN PERIOD 1,1.9516650835E-002,0.1072647366,Pass,Pass,1.5551296802E-002,8.3109439321E-002,Pass,Pass
 Warmup Convergence Information,OR_NURSESTN_LOBBY_FLR_2 ZN,RunPeriod: RUN PERIOD 1,8.1167978541E-003,1.3471653606E-002,Pass,Pass,1.1998866954E-003,2.1822570863E-003,Pass,Pass
 Warmup Convergence Information,PATROOM1_MULT10_FLR_3 ZN,RunPeriod: RUN PERIOD 1,1.6191527184E-002,8.3277136780E-002,Pass,Pass,4.6554682958E-002,9.3361844801E-002,Pass,Pass
 Warmup Convergence Information,PATROOM1_MULT10_FLR_4 ZN,RunPeriod: RUN PERIOD 1,2.0414598876E-002,0.1063839397,Pass,Pass,1.1348826572,6.0874032417,Pass,Pass
 Warmup Convergence Information,PATROOM2_FLR_3 ZN,RunPeriod: RUN PERIOD 1,2.9250268199E-002,0.1564954736,Pass,Pass,0.1162952611,0.3505755497,Pass,Pass
 Warmup Convergence Information,PATROOM2_FLR_4 ZN,RunPeriod: RUN PERIOD 1,3.3201295268E-002,0.1775833038,Pass,Pass,4.1505227687,43.0316823686,Pass,Pass
 Warmup Convergence Information,PATROOM3_MULT10_FLR_3 ZN,RunPeriod: RUN PERIOD 1,1.6947576586E-002,9.2912363087E-002,Pass,Pass,0.2055359436,0.8709491001,Pass,Pass
 Warmup Convergence Information,PATROOM3_MULT10_FLR_4 ZN,RunPeriod: RUN PERIOD 1,2.1490441268E-002,0.1168692678,Pass,Pass,0.2839358654,1.1250456507,Pass,Pass
 Warmup Convergence Information,PATROOM4_FLR_3 ZN,RunPeriod: RUN PERIOD 1,3.1222278299E-002,0.1760944528,Pass,Pass,0.3484207319,2.0914732164,Pass,Pass
 Warmup Convergence Information,PATROOM4_FLR_4 ZN,RunPeriod: RUN PERIOD 1,3.8712143614E-002,0.2158618639,Pass,Pass,0.5496421711,3.9667375642,Pass,Pass
 Warmup Convergence Information,PATROOM5_MULT10_FLR_3 ZN,RunPeriod: RUN PERIOD 1,1.6341938276E-002,8.8395485902E-002,Pass,Pass,5.6846837631E-002,0.2145721402,Pass,Pass
 Warmup Convergence Information,PATROOM5_MULT10_FLR_4 ZN,RunPeriod: RUN PERIOD 1,2.5375374819E-002,0.1416314703,Pass,Pass,0.3398258830,0.9258148699,Pass,Pass
 Warmup Convergence Information,PATROOM6_FLR_3 ZN,RunPeriod: RUN PERIOD 1,3.2262209891E-002,0.1693376339,Pass,Pass,0.2234710195,0.9318624835,Pass,Pass
 Warmup Convergence Information,PATROOM6_FLR_4 ZN,RunPeriod: RUN PERIOD 1,3.6034233698E-002,0.1916641399,Pass,Pass,0.3754755568,1.5956913889,Pass,Pass
 Warmup Convergence Information,PATROOM7_MULT10_FLR_3 ZN,RunPeriod: RUN PERIOD 1,1.9026280305E-002,0.1005622032,Pass,Pass,0.1469277743,0.4501244666,Pass,Pass
 Warmup Convergence Information,PATROOM7_MULT10_FLR_4 ZN,RunPeriod: RUN PERIOD 1,2.3075113265E-002,0.1239335244,Pass,Pass,0.1993219634,0.6608632656,Pass,Pass
 Warmup Convergence Information,PATROOM8_FLR_3 ZN,RunPeriod: RUN PERIOD 1,3.7838471328E-002,0.2103022479,Pass,Pass,20.2485211557,238.7056190676,Pass,Pass
 Warmup Convergence Information,PATROOM8_FLR_4 ZN,RunPeriod: RUN PERIOD 1,3.9520671987E-002,0.2186251200,Pass,Pass,0.7896052994,5.1066599429,Pass,Pass
 Warmup Convergence Information,PHYSTHERAPY_FLR_3 ZN,RunPeriod: RUN PERIOD 1,4.6403492207E-003,8.2758630478E-003,Pass,Pass,6.0621873225E-004,1.1753977480E-003,Pass,Pass
 Warmup Convergence Information,RADIOLOGY_FLR_4 ZN,RunPeriod: RUN PERIOD 1,1.2314995826E-002,3.4518138171E-002,Pass,Pass,2.3810925133E-003,8.7444156253E-003,Pass,Pass
! <Program Control Information:Threads/Parallel Sims>, Threading Supported,Maximum Number of Threads, Env Set Threads (OMP_NUM_THREADS), EP Env Set Threads (EP_OMP_NUM_THREADS), IDF Set Threads, Number of Threads Used (Interior Radiant Exchange), Number Nominal Surfaces, Number Parallel Sims
Program Control:Threads/Parallel Sims, No,1, N/A, N/A, N/A, N/A, N/A, N/A
End of Data
