{
   "completed_at" : "20220326T010136Z",
   "completed_status" : "Success",
   "created_at" : "20220325T201142Z",
   "current_step" : 2,
   "eplusout_err" : "Program Version,EnergyPlus, Version 9.6.0-4b123cf80f, YMD=2022.03.25 18:57,\n   ************* Beginning Zone Sizing Calculations\n   ** Warning ** Weather file location will be used rather than entered (IDF) Location object.\n   **   ~~~   ** ..Location object=EL PASO INTERNATIONAL AP  UT_TX_USA\n   **   ~~~   ** ..Weather File Location=Red Bluff Municipal Arpt CA USA TMY3 WMO#=725910\n   **   ~~~   ** ..due to location differences, Latitude difference=[8.38] degrees, Longitude difference=[15.75] degrees.\n   **   ~~~   ** ..Time Zone difference=[1.0] hour(s), Elevation difference=[91.06] percent, [1080.00] meters.\n   ** Warning ** SetUpDesignDay: Entered DesignDay Barometric Pressure=87865 differs by more than 10% from Standard Barometric Pressure=100058.\n   **   ~~~   ** ...occurs in DesignDay=EL PASO INTERNATIONAL AP  UT ANN CLG .4% CONDNS DB=>MWB, Standard Pressure (based on elevation) will be used.\n   ** Warning ** ProcessScheduleInput: Schedule:Day:Interval=\"ECONOMIZER MAX OA FRACTION 70 PCT DEFAULT\", Blank Schedule Type Limits Name input -- will not be validated.\n   ** Warning ** ProcessScheduleInput: DecodeHHMMField, Invalid \"until\" field value is not a multiple of the minutes for each timestep: 00:59\n   **   ~~~   ** Other errors may result. Occurred in Day Schedule=REFRIGERATION DEFROST SCHEDULE DEFAULT\n   ** Warning ** ProcessScheduleInput: DecodeHHMMField, Invalid \"until\" field value is not a multiple of the minutes for each timestep: 00:59\n   **   ~~~   ** Other errors may result. Occurred in Day Schedule=REFRIGERATION DEFROST SCHEDULE DEFAULT 1\n   ** Warning ** ProcessScheduleInput: DecodeHHMMField, Invalid \"until\" field value is not a multiple of the minutes for each timestep: 00:59\n   **   ~~~   ** Other errors may result. Occurred in Day Schedule=REFRIGERATION DEFROST SCHEDULE DEFAULT 2\n   ** Warning ** ProcessScheduleInput: DecodeHHMMField, Invalid \"until\" field value is not a multiple of the minutes for each timestep: 10:59\n   **   ~~~   ** Other errors may result. Occurred in Day Schedule=REFRIGERATION DEFROST SCHEDULE DEFAULT 2\n   ** Warning ** ProcessScheduleInput: DecodeHHMMField, Invalid \"until\" field value is not a multiple of the minutes for each timestep: 00:59\n   **   ~~~   ** Other errors may result. Occurred in Day Schedule=REFRIGERATION DEFROST SCHEDULE DEFAULT 3\n   ** Warning ** ProcessScheduleInput: DecodeHHMMField, Invalid \"until\" field value is not a multiple of the minutes for each timestep: 10:59\n   **   ~~~   ** Other errors may result. Occurred in Day Schedule=REFRIGERATION DEFROST SCHEDULE DEFAULT 3\n   ** Warning ** ProcessScheduleInput: Schedule:Constant=\"ALWAYS OFF DISCRETE\", Blank Schedule Type Limits Name input -- will not be validated.\n   ** Warning ** ProcessScheduleInput: Schedule:Constant=\"ALWAYS ON CONTINUOUS\", Blank Schedule Type Limits Name input -- will not be validated.\n   ** Warning ** GetHTSurfaceData: Surfaces with interface to Ground found but no \"Ground Temperatures\" were input.\n   **   ~~~   ** Found first in surface=BASEMENT_FLOOR\n   **   ~~~   ** Defaults, constant throughout the year of (18.0) will be used.\n   ** Warning ** CheckConvexity: Zone=\"CORRIDOR_FLR_5 ZN\", Surface=\"CORRIDOR_FLR_5_CEILING\" is non-convex.\n   **   ~~~   ** ...vertex 2 to vertex 3 to vertex 4\n   **   ~~~   ** ...vertex 2=[-42.67,15.24,21.34]\n   **   ~~~   ** ...vertex 3=[-42.67,39.62,21.34]\n   **   ~~~   ** ...vertex 4=[-53.34,39.62,21.34]\n   ** Warning ** GetSurfaceData: InterZone Surface Areas do not match as expected and might not satisfy conservation of energy:\n   **   ~~~   **   Area=19.5, Multipliers=1, Total Area=19.5 in Surface=CORRIDOR_FLR_1_WALL_EAST Zone=CORRIDOR_FLR_1 ZN\n   **   ~~~   **   Area=19.5, Multipliers=4, Total Area=78.0 in Surface=ER_EXAM1_MULT4_FLR_1_WALL_WEST Zone=ER_EXAM1_MULT4_FLR_1 ZN\n   ** Warning ** GetSurfaceData: InterZone Surface Areas do not match as expected and might not satisfy conservation of energy:\n   **   ~~~   **   Area=19.5, Multipliers=1, Total Area=19.5 in Surface=SURFACE 26 Zone=CORRIDOR_FLR_1 ZN\n   **   ~~~   **   Area=19.5, Multipliers=4, Total Area=78.0 in Surface=ER_TRIAGE_MULT4_FLR_1_WALL_WEST Zone=ER_TRIAGE_MULT4_FLR_1 ZN\n   ** Warning ** GetSurfaceData: InterZone Surface Areas do not match as expected and might not satisfy conservation of energy:\n   **   ~~~   **   Area=19.5, Multipliers=1, Total Area=19.5 in Surface=CORRIDOR_FLR_2_WALL_WEST Zone=CORRIDOR_FLR_2 ZN\n   **   ~~~   **   Area=19.5, Multipliers=5, Total Area=97.5 in Surface=IC_PATROOM1_MULT5_FLR_2_WALL_EAST Zone=IC_PATROOM1_MULT5_FLR_2 ZN\n   ** Warning ** GetSurfaceData: InterZone Surface Areas do not match as expected and might not satisfy conservation of energy:\n   **   ~~~   **   Area=13.0, Multipliers=1, Total Area=13.0 in Surface=CORRIDOR_FLR_5_WALL_2_NORTH Zone=CORRIDOR_FLR_5 ZN\n   **   ~~~   **   Area=13.0, Multipliers=6, Total Area=78.0 in Surface=OFFICE4_MULT6_FLR_5_WALL_SOUTH Zone=OFFICE4_MULT6_FLR_5 ZN\n   ** Warning ** GetSurfaceData: InterZone Surface Areas do not match as expected and might not satisfy conservation of energy:\n   **   ~~~   **   Area=32.5, Multipliers=1, Total Area=32.5 in Surface=SURFACE 132 Zone=CORRIDOR_FLR_5 ZN\n   **   ~~~   **   Area=32.5, Multipliers=5, Total Area=162.5 in Surface=OFFICE2_MULT5_FLR_5_WALL_EAST Zone=OFFICE2_MULT5_FLR_5 ZN\n   ** Warning ** GetSurfaceData: InterZone Surface Areas do not match as expected and might not satisfy conservation of energy:\n   **   ~~~   **   Area=19.5, Multipliers=1, Total Area=19.5 in Surface=CORRIDOR_NW_FLR_3_WALL_2_EAST Zone=CORRIDOR_NW_FLR_3 ZN\n   **   ~~~   **   Area=19.5, Multipliers=10, Total Area=195.1 in Surface=PATROOM5_MULT10_FLR_3_WALL_WEST Zone=PATROOM5_MULT10_FLR_3 ZN\n   ** Warning ** GetSurfaceData: InterZone Surface Areas do not match as expected and might not satisfy conservation of energy:\n   **   ~~~   **   Area=19.5, Multipliers=1, Total Area=19.5 in Surface=CORRIDOR_NW_FLR_3_WALL_3_NORTH Zone=CORRIDOR_NW_FLR_3 ZN\n   **   ~~~   **   Area=19.5, Multipliers=10, Total Area=195.1 in Surface=PATROOM5_MULT10_FLR_3_WALL_SOUTH Zone=PATROOM5_MULT10_FLR_3 ZN\n   ** Warning ** GetSurfaceData: InterZone Surface Areas do not match as expected and might not satisfy conservation of energy:\n   **   ~~~   **   Area=20.9, Multipliers=1, Total Area=20.9 in Surface=SURFACE 72 Zone=CORRIDOR_NW_FLR_3 ZN\n   **   ~~~   **   Area=20.9, Multipliers=5, Total Area=104.5 in Surface=OR2_MULT5_FLR_2_CEILING Zone=OR2_MULT5_FLR_2 ZN\n   ** Warning ** GetSurfaceData: InterZone Surface Areas do not match as expected and might not satisfy conservation of energy:\n   **   ~~~   **   Area=19.5, Multipliers=1, Total Area=19.5 in Surface=CORRIDOR_NW_FLR_4_WALL_2_EAST Zone=CORRIDOR_NW_FLR_4 ZN\n   **   ~~~   **   Area=19.5, Multipliers=10, Total Area=195.1 in Surface=PATROOM5_MULT10_FLR_4_WALL_WEST Zone=PATROOM5_MULT10_FLR_4 ZN\n   ** Warning ** GetSurfaceData: InterZone Surface Areas do not match as expected and might not satisfy conservation of energy:\n   **   ~~~   **   Area=19.5, Multipliers=1, Total Area=19.5 in Surface=CORRIDOR_NW_FLR_4_WALL_3_NORTH Zone=CORRIDOR_NW_FLR_4 ZN\n   **   ~~~   **   Area=19.5, Multipliers=10, Total Area=195.1 in Surface=PATROOM5_MULT10_FLR_4_WALL_SOUTH Zone=PATROOM5_MULT10_FLR_4 ZN\n   ** Warning ** GetSurfaceData: InterZone Surface Areas do not match as expected and might not satisfy conservation of energy:\n   **   ~~~   **   Area=20.9, Multipliers=1, Total Area=20.9 in Surface=SURFACE 97 Zone=CORRIDOR_NW_FLR_4 ZN\n   **   ~~~   **   Area=20.9, Multipliers=5, Total Area=104.5 in Surface=SURFACE 86 Zone=OFFICE2_MULT5_FLR_5 ZN\n   ** Warning ** GetSurfaceData: InterZone Surface Areas do not match as expected and might not satisfy conservation of energy:\n   **   ~~~   **   Area=18.8, Multipliers=1, Total Area=18.8 in Surface=CORRIDOR_SE_FLR_3_WALL_1_EAST Zone=CORRIDOR_SE_FLR_3 ZN\n   **   ~~~   **   Area=18.8, Multipliers=10, Total Area=188.6 in Surface=PATROOM3_MULT10_FLR_3_WALL_WEST Zone=PATROOM3_MULT10_FLR_3 ZN\n   ** Warning ** GetSurfaceData: InterZone Surface Areas do not match as expected and might not satisfy conservation of energy:\n   **   ~~~   **   Area=19.5, Multipliers=1, Total Area=19.5 in Surface=CORRIDOR_SE_FLR_3_WALL_2_EAST Zone=CORRIDOR_SE_FLR_3 ZN\n   **   ~~~   **   Area=19.5, Multipliers=10, Total Area=195.1 in Surface=PATROOM1_MULT10_FLR_3_WALL_WEST Zone=PATROOM1_MULT10_FLR_3 ZN\n   ** Warning ** GetSurfaceData: InterZone Surface Areas do not match as expected and might not satisfy conservation of energy:\n   **   ~~~   **   Area=19.5, Multipliers=1, Total Area=19.5 in Surface=CORRIDOR_SE_FLR_3_WALL_3_SOUTH Zone=CORRIDOR_SE_FLR_3 ZN\n   **   ~~~   **   Area=19.5, Multipliers=10, Total Area=195.1 in Surface=PATROOM1_MULT10_FLR_3_WALL_NORTH Zone=PATROOM1_MULT10_FLR_3 ZN\n   ** Warning ** GetSurfaceData: InterZone Surface Areas do not match as expected and might not satisfy conservation of energy:\n   **   ~~~   **   Area=18.8, Multipliers=1, Total Area=18.8 in Surface=CORRIDOR_SE_FLR_3_WALL_3_WEST Zone=CORRIDOR_SE_FLR_3 ZN\n   **   ~~~   **   Area=18.8, Multipliers=10, Total Area=188.6 in Surface=PATROOM7_MULT10_FLR_3_WALL_EAST Zone=PATROOM7_MULT10_FLR_3 ZN\n   ** Warning ** GetSurfaceData: InterZone Surface Areas do not match as expected and might not satisfy conservation of energy:\n   **   ~~~   **   Area=6.9, Multipliers=1, Total Area=6.9 in Surface=SURFACE 120 Zone=CORRIDOR_SE_FLR_3 ZN\n   **   ~~~   **   Area=6.9, Multipliers=5, Total Area=34.8 in Surface=SURFACE 80 Zone=OR2_MULT5_FLR_2 ZN\n   ** Warning ** GetSurfaceData: InterZone Surface Areas do not match as expected and might not satisfy conservation of energy:\n   **   ~~~   **   Area=18.8, Multipliers=1, Total Area=18.8 in Surface=CORRIDOR_SE_FLR_4_WALL_1_EAST Zone=CORRIDOR_SE_FLR_4 ZN\n   **   ~~~   **   Area=18.8, Multipliers=10, Total Area=188.6 in Surface=PATROOM3_MULT10_FLR_4_WALL_WEST Zone=PATROOM3_MULT10_FLR_4 ZN\n   ** Warning ** GetSurfaceData: InterZone Surface Areas do not match as expected and might not satisfy conservation of energy:\n   **   ~~~   **   Area=19.5, Multipliers=1, Total Area=19.5 in Surface=CORRIDOR_SE_FLR_4_WALL_2_EAST Zone=CORRIDOR_SE_FLR_4 ZN\n   **   ~~~   **   Area=19.5, Multipliers=10, Total Area=195.1 in Surface=PATROOM1_MULT10_FLR_4_WALL_WEST Zone=PATROOM1_MULT10_FLR_4 ZN\n   ** Warning ** GetSurfaceData: InterZone Surface Areas do not match as expected and might not satisfy conservation of energy:\n   **   ~~~   **   Area=18.8, Multipliers=1, Total Area=18.8 in Surface=CORRIDOR_SE_FLR_4_WALL_3_WEST Zone=CORRIDOR_SE_FLR_4 ZN\n   **   ~~~   **   Area=18.8, Multipliers=10, Total Area=188.6 in Surface=PATROOM7_MULT10_FLR_4_WALL_EAST Zone=PATROOM7_MULT10_FLR_4 ZN\n   ** Warning ** GetSurfaceData: InterZone Surface Areas do not match as expected and might not satisfy conservation of energy:\n   **   ~~~   **   Area=19.5, Multipliers=1, Total Area=19.5 in Surface=SURFACE 142 Zone=CORRIDOR_SE_FLR_4 ZN\n   **   ~~~   **   Area=19.5, Multipliers=10, Total Area=195.1 in Surface=PATROOM1_MULT10_FLR_4_WALL_NORTH Zone=PATROOM1_MULT10_FLR_4 ZN\n   ** Warning ** GetSurfaceData: InterZone Surface Areas do not match as expected and might not satisfy conservation of energy:\n   **   ~~~   **   Area=13.9, Multipliers=1, Total Area=13.9 in Surface=SURFACE 137 Zone=CORRIDOR_SE_FLR_4 ZN\n   **   ~~~   **   Area=13.9, Multipliers=5, Total Area=69.6 in Surface=SURFACE 100 Zone=OFFICE2_MULT5_FLR_5 ZN\n   ** Warning ** GetSurfaceData: InterZone Surface Areas do not match as expected and might not satisfy conservation of energy:\n   **   ~~~   **   Area=20.2, Multipliers=1, Total Area=20.2 in Surface=SURFACE 55 Zone=DINING_FLR_5 ZN\n   **   ~~~   **   Area=20.2, Multipliers=10, Total Area=202.0 in Surface=PATROOM3_MULT10_FLR_4_CEILING Zone=PATROOM3_MULT10_FLR_4 ZN\n   ** Warning ** GetSurfaceData: InterZone Surface Areas do not match as expected and might not satisfy conservation of energy:\n   **   ~~~   **   Area=20.9, Multipliers=1, Total Area=20.9 in Surface=SURFACE 60 Zone=DINING_FLR_5 ZN\n   **   ~~~   **   Area=20.9, Multipliers=10, Total Area=209.0 in Surface=PATROOM1_MULT10_FLR_4_CEILING Zone=PATROOM1_MULT10_FLR_4 ZN\n   ** Warning ** GetSurfaceData: InterZone Surface Areas do not match as expected and might not satisfy conservation of energy:\n   **   ~~~   **   Area=26.0, Multipliers=4, Total Area=104.0 in Surface=ER_EXAM1_MULT4_FLR_1_WALL_NORTH Zone=ER_EXAM1_MULT4_FLR_1 ZN\n   **   ~~~   **   Area=26.0, Multipliers=1, Total Area=26.0 in Surface=ER_NURSESTN_LOBBY_FLR_1_WALL_1_SOUTH Zone=ER_NURSESTN_LOBBY_FLR_1 ZN\n   ** Warning ** GetSurfaceData: InterZone Surface Areas do not match as expected and might not satisfy conservation of energy:\n   **   ~~~   **   Area=27.8, Multipliers=4, Total Area=111.4 in Surface=ER_EXAM1_MULT4_FLR_1_CEILING Zone=ER_EXAM1_MULT4_FLR_1 ZN\n   **   ~~~   **   Area=27.8, Multipliers=1, Total Area=27.8 in Surface=SURFACE 30 Zone=OR_NURSESTN_LOBBY_FLR_2 ZN\n   ** Warning ** GetSurfaceData: InterZone Surface Areas do not match as expected and might not satisfy conservation of energy:\n   **   ~~~   **   Area=26.0, Multipliers=4, Total Area=104.0 in Surface=ER_EXAM3_MULT4_FLR_1_WALL_SOUTH Zone=ER_EXAM3_MULT4_FLR_1 ZN\n   **   ~~~   **   Area=26.0, Multipliers=1, Total Area=26.0 in Surface=ER_TRAUMA1_FLR_1_WALL_NORTH Zone=ER_TRAUMA1_FLR_1 ZN\n   ** Warning ** GetSurfaceData: InterZone Surface Areas do not match as expected and might not satisfy conservation of energy:\n   **   ~~~   **   Area=19.5, Multipliers=4, Total Area=78.0 in Surface=ER_EXAM3_MULT4_FLR_1_WALL_WEST Zone=ER_EXAM3_MULT4_FLR_1 ZN\n   **   ~~~   **   Area=19.5, Multipliers=1, Total Area=19.5 in Surface=ER_NURSESTN_LOBBY_FLR_1_WALL_2_EAST Zone=ER_NURSESTN_LOBBY_FLR_1 ZN\n   ** Warning ** GetSurfaceData: InterZone Surface Areas do not match as expected and might not satisfy conservation of energy:\n   **   ~~~   **   Area=27.8, Multipliers=4, Total Area=111.4 in Surface=ER_EXAM3_MULT4_FLR_1_CEILING Zone=ER_EXAM3_MULT4_FLR_1 ZN\n   **   ~~~   **   Area=27.8, Multipliers=1, Total Area=27.8 in Surface=OR_NURSESTN_LOBBY_FLR_2_FLOOR Zone=OR_NURSESTN_LOBBY_FLR_2 ZN\n   ** Warning ** GetSurfaceData: InterZone Surface Areas do not match as expected and might not satisfy conservation of energy:\n   **   ~~~   **   Area=26.0, Multipliers=1, Total Area=26.0 in Surface=ER_NURSESTN_LOBBY_FLR_1_WALL_1_NORTH Zone=ER_NURSESTN_LOBBY_FLR_1 ZN\n   **   ~~~   **   Area=26.0, Multipliers=4, Total Area=104.0 in Surface=ER_TRIAGE_MULT4_FLR_1_WALL_SOUTH Zone=ER_TRIAGE_MULT4_FLR_1 ZN\n   ** Warning ** GetSurfaceData: InterZone Surface Areas do not match as expected and might not satisfy conservation of energy:\n   **   ~~~   **   Area=18.5, Multipliers=1, Total Area=18.5 in Surface=SURFACE 115 Zone=ER_NURSESTN_LOBBY_FLR_1 ZN\n   **   ~~~   **   Area=18.5, Multipliers=5, Total Area=92.9 in Surface=OR2_MULT5_FLR_2_FLOOR Zone=OR2_MULT5_FLR_2 ZN\n   ** Warning ** GetSurfaceData: InterZone Surface Areas do not match as expected and might not satisfy conservation of energy:\n   **   ~~~   **   Area=27.8, Multipliers=4, Total Area=111.4 in Surface=ER_TRIAGE_MULT4_FLR_1_CEILING Zone=ER_TRIAGE_MULT4_FLR_1 ZN\n   **   ~~~   **   Area=27.8, Multipliers=1, Total Area=27.8 in Surface=OR3_FLR_2_FLOOR Zone=OR3_FLR_2 ZN\n   ** Warning ** GetSurfaceData: InterZone Surface Areas do not match as expected and might not satisfy conservation of energy:\n   **   ~~~   **   Area=13.9, Multipliers=1, Total Area=13.9 in Surface=ICU_FLR_2_FLOOR Zone=ICU_FLR_2 ZN\n   **   ~~~   **   Area=13.9, Multipliers=5, Total Area=69.6 in Surface=OFFICE1_MULT4_FLR_1_CEILING Zone=OFFICE1_MULT4_FLR_1 ZN\n   ** Warning ** GetSurfaceData: InterZone Surface Areas do not match as expected and might not satisfy conservation of energy:\n   **   ~~~   **   Area=20.2, Multipliers=1, Total Area=20.2 in Surface=SURFACE 93 Zone=ICU_FLR_2 ZN\n   **   ~~~   **   Area=20.2, Multipliers=10, Total Area=202.0 in Surface=PATROOM7_MULT10_FLR_3_FLOOR Zone=PATROOM7_MULT10_FLR_3 ZN\n   ** Warning ** GetSurfaceData: InterZone Surface Areas do not match as expected and might not satisfy conservation of energy:\n   **   ~~~   **   Area=19.5, Multipliers=1, Total Area=19.5 in Surface=ICU_NURSESTN_LOBBY_FLR_2_WALL_NORTH Zone=ICU_NURSESTN_LOBBY_FLR_2 ZN\n   **   ~~~   **   Area=19.5, Multipliers=5, Total Area=97.5 in Surface=IC_PATROOM1_MULT5_FLR_2_WALL_SOUTH Zone=IC_PATROOM1_MULT5_FLR_2 ZN\n   ** Warning ** GetSurfaceData: InterZone Surface Areas do not match as expected and might not satisfy conservation of energy:\n   **   ~~~   **   Area=19.5, Multipliers=1, Total Area=19.5 in Surface=ICU_NURSESTN_LOBBY_FLR_2_WALL_WEST Zone=ICU_NURSESTN_LOBBY_FLR_2 ZN\n   **   ~~~   **   Area=19.5, Multipliers=6, Total Area=117.0 in Surface=IC_PATROOM3_MULT6_FLR_2_WALL_EAST Zone=IC_PATROOM3_MULT6_FLR_2 ZN\n   ** Warning ** GetSurfaceData: InterZone Surface Areas do not match as expected and might not satisfy conservation of energy:\n   **   ~~~   **   Area=20.9, Multipliers=5, Total Area=104.5 in Surface=IC_PATROOM1_MULT5_FLR_2_FLOOR Zone=IC_PATROOM1_MULT5_FLR_2 ZN\n   **   ~~~   **   Area=20.9, Multipliers=1, Total Area=20.9 in Surface=LOBBY_RECORDS_FLR_1_CEILING_7 Zone=LOBBY_RECORDS_FLR_1 ZN\n   ** Warning ** GetSurfaceData: InterZone Surface Areas do not match as expected and might not satisfy conservation of energy:\n   **   ~~~   **   Area=19.5, Multipliers=1, Total Area=19.5 in Surface=SURFACE 157 Zone=IC_PATROOM2_FLR_2 ZN\n   **   ~~~   **   Area=19.5, Multipliers=6, Total Area=117.0 in Surface=IC_PATROOM3_MULT6_FLR_2_WALL_NORTH Zone=IC_PATROOM3_MULT6_FLR_2 ZN\n   ** Warning ** GetSurfaceData: InterZone Surface Areas do not match as expected and might not satisfy conservation of energy:\n   **   ~~~   **   Area=20.9, Multipliers=6, Total Area=125.4 in Surface=IC_PATROOM3_MULT6_FLR_2_FLOOR Zone=IC_PATROOM3_MULT6_FLR_2 ZN\n   **   ~~~   **   Area=20.9, Multipliers=1, Total Area=20.9 in Surface=LOBBY_RECORDS_FLR_1_CEILING_4 Zone=LOBBY_RECORDS_FLR_1 ZN\n   ** Warning ** GetSurfaceData: InterZone Surface Areas do not match as expected and might not satisfy conservation of energy:\n   **   ~~~   **   Area=20.9, Multipliers=1, Total Area=20.9 in Surface=KITCHEN_FLR_5_FLOOR Zone=KITCHEN_FLR_5 ZN\n   **   ~~~   **   Area=20.9, Multipliers=10, Total Area=209.0 in Surface=PATROOM5_MULT10_FLR_4_CEILING Zone=PATROOM5_MULT10_FLR_4 ZN\n   ** Warning ** GetSurfaceData: InterZone Surface Areas do not match as expected and might not satisfy conservation of energy:\n   **   ~~~   **   Area=19.5, Multipliers=1, Total Area=19.5 in Surface=LOBBY_RECORDS_FLR_1_WALL_3_EAST Zone=LOBBY_RECORDS_FLR_1 ZN\n   **   ~~~   **   Area=19.5, Multipliers=5, Total Area=97.5 in Surface=OFFICE1_MULT4_FLR_1_WALL_WEST Zone=OFFICE1_MULT4_FLR_1 ZN\n   ** Warning ** GetSurfaceData: InterZone Surface Areas do not match as expected and might not satisfy conservation of energy:\n   **   ~~~   **   Area=13.0, Multipliers=1, Total Area=13.0 in Surface=LOBBY_RECORDS_FLR_1_WALL_3_SOUTH Zone=LOBBY_RECORDS_FLR_1 ZN\n   **   ~~~   **   Area=13.0, Multipliers=5, Total Area=65.0 in Surface=OFFICE1_MULT4_FLR_1_WALL_NORTH Zone=OFFICE1_MULT4_FLR_1 ZN\n   ** Warning ** GetSurfaceData: InterZone Surface Areas do not match as expected and might not satisfy conservation of energy:\n   **   ~~~   **   Area=39.0, Multipliers=1, Total Area=39.0 in Surface=OFFICE1_FLR_5_WALL_NORTH Zone=OFFICE1_FLR_5 ZN\n   **   ~~~   **   Area=39.0, Multipliers=5, Total Area=195.1 in Surface=OFFICE2_MULT5_FLR_5_WALL_SOUTH Zone=OFFICE2_MULT5_FLR_5 ZN\n   ** Warning ** GetSurfaceData: InterZone Surface Areas do not match as expected and might not satisfy conservation of energy:\n   **   ~~~   **   Area=13.9, Multipliers=1, Total Area=13.9 in Surface=SURFACE 21 Zone=OFFICE1_FLR_5 ZN\n   **   ~~~   **   Area=13.9, Multipliers=10, Total Area=139.4 in Surface=PATROOM7_MULT10_FLR_4_CEILING Zone=PATROOM7_MULT10_FLR_4 ZN\n   ** Warning ** GetSurfaceData: InterZone Surface Areas do not match as expected and might not satisfy conservation of energy:\n   **   ~~~   **   Area=6.2, Multipliers=5, Total Area=31.3 in Surface=OFFICE2_MULT5_FLR_5_FLOOR Zone=OFFICE2_MULT5_FLR_5 ZN\n   **   ~~~   **   Area=6.2, Multipliers=10, Total Area=62.6 in Surface=SURFACE 83 Zone=PATROOM7_MULT10_FLR_4 ZN\n   ** Warning ** GetSurfaceData: InterZone Surface Areas do not match as expected and might not satisfy conservation of energy:\n   **   ~~~   **   Area=19.5, Multipliers=1, Total Area=19.5 in Surface=SURFACE 141 Zone=OFFICE3_FLR_5 ZN\n   **   ~~~   **   Area=19.5, Multipliers=6, Total Area=117.0 in Surface=OFFICE4_MULT6_FLR_5_WALL_WEST Zone=OFFICE4_MULT6_FLR_5 ZN\n   ** Warning ** GetSurfaceData: InterZone Surface Areas do not match as expected and might not satisfy conservation of energy:\n   **   ~~~   **   Area=39.0, Multipliers=1, Total Area=39.0 in Surface=OR1_FLR_2_WALL_SOUTH Zone=OR1_FLR_2 ZN\n   **   ~~~   **   Area=39.0, Multipliers=5, Total Area=195.1 in Surface=OR2_MULT5_FLR_2_WALL_NORTH Zone=OR2_MULT5_FLR_2 ZN\n   ** Warning ** GetSurfaceData: InterZone Surface Areas do not match as expected and might not satisfy conservation of energy:\n   **   ~~~   **   Area=26.0, Multipliers=5, Total Area=130.0 in Surface=OR2_MULT5_FLR_2_WALL_WEST Zone=OR2_MULT5_FLR_2 ZN\n   **   ~~~   **   Area=26.0, Multipliers=1, Total Area=26.0 in Surface=SURFACE 5 Zone=OR_NURSESTN_LOBBY_FLR_2 ZN\n   ** Warning ** GetSurfaceData: InterZone Surface Areas do not match as expected and might not satisfy conservation of energy:\n   **   ~~~   **   Area=20.9, Multipliers=1, Total Area=20.9 in Surface=OR3_FLR_2_CEILING Zone=OR3_FLR_2 ZN\n   **   ~~~   **   Area=20.9, Multipliers=10, Total Area=209.0 in Surface=PATROOM5_MULT10_FLR_3_FLOOR Zone=PATROOM5_MULT10_FLR_3 ZN\n   ** Warning ** GetSurfaceData: InterZone Surface Areas do not match as expected and might not satisfy conservation of energy:\n   **   ~~~   **   Area=20.2, Multipliers=1, Total Area=20.2 in Surface=OR_NURSESTN_LOBBY_FLR_2_CEILING Zone=OR_NURSESTN_LOBBY_FLR_2 ZN\n   **   ~~~   **   Area=20.2, Multipliers=10, Total Area=202.0 in Surface=PATROOM3_MULT10_FLR_3_FLOOR Zone=PATROOM3_MULT10_FLR_3 ZN\n   ** Warning ** GetSurfaceData: InterZone Surface Areas do not match as expected and might not satisfy conservation of energy:\n   **   ~~~   **   Area=20.9, Multipliers=1, Total Area=20.9 in Surface=SURFACE 74 Zone=OR_NURSESTN_LOBBY_FLR_2 ZN\n   **   ~~~   **   Area=20.9, Multipliers=10, Total Area=209.0 in Surface=PATROOM1_MULT10_FLR_3_FLOOR Zone=PATROOM1_MULT10_FLR_3 ZN\n   ** Warning ** GetSurfaceData: InterZone Surface Areas do not match as expected and might not satisfy conservation of energy:\n   **   ~~~   **   Area=19.5, Multipliers=1, Total Area=19.5 in Surface=PATROOM2_FLR_3_WALL_NORTH Zone=PATROOM2_FLR_3 ZN\n   **   ~~~   **   Area=19.5, Multipliers=10, Total Area=195.1 in Surface=PATROOM3_MULT10_FLR_3_WALL_SOUTH Zone=PATROOM3_MULT10_FLR_3 ZN\n   ** Warning ** GetSurfaceData: InterZone Surface Areas do not match as expected and might not satisfy conservation of energy:\n   **   ~~~   **   Area=19.5, Multipliers=1, Total Area=19.5 in Surface=PATROOM2_FLR_4_WALL_NORTH Zone=PATROOM2_FLR_4 ZN\n   **   ~~~   **   Area=19.5, Multipliers=10, Total Area=195.1 in Surface=PATROOM3_MULT10_FLR_4_WALL_SOUTH Zone=PATROOM3_MULT10_FLR_4 ZN\n   ** Warning ** GetSurfaceData: InterZone Surface Areas do not match as expected and might not satisfy conservation of energy:\n   **   ~~~   **   Area=19.5, Multipliers=1, Total Area=19.5 in Surface=PATROOM6_FLR_3_WALL_NORTH Zone=PATROOM6_FLR_3 ZN\n   **   ~~~   **   Area=19.5, Multipliers=10, Total Area=195.1 in Surface=PATROOM7_MULT10_FLR_3_WALL_SOUTH Zone=PATROOM7_MULT10_FLR_3 ZN\n   ** Warning ** GetSurfaceData: InterZone Surface Areas do not match as expected and might not satisfy conservation of energy:\n   **   ~~~   **   Area=19.5, Multipliers=1, Total Area=19.5 in Surface=PATROOM6_FLR_4_WALL_NORTH Zone=PATROOM6_FLR_4 ZN\n   **   ~~~   **   Area=19.5, Multipliers=10, Total Area=195.1 in Surface=PATROOM7_MULT10_FLR_4_WALL_SOUTH Zone=PATROOM7_MULT10_FLR_4 ZN\n   ** Warning ** CheckUsedConstructions: There are 13 nominally unused constructions in input.\n   **   ~~~   ** Each Unused construction is shown.\n   ************* Construction=SMALLHOTEL 2010 SLAB FLOOR\n   ************* Construction=TYPICAL IEAD ROOF - HIGHLY REFLECTIVE R-20.83 1\n   ************* Construction=TYPICAL INSULATED BASEMENT MASS WALL\n   ************* Construction=TYPICAL INSULATED EXTERIOR MASS FLOOR R-11.49\n   ************* Construction=TYPICAL INSULATED EXTERIOR MASS FLOOR R-9.35\n   ************* Construction=TYPICAL INSULATED METAL DOOR R-1.43 1\n   ************* Construction=TYPICAL INTERIOR DOOR\n   ************* Construction=TYPICAL INTERIOR PARTITION\n   ************* Construction=TYPICAL INTERIOR WINDOW\n   ************* Construction=TYPICAL OVERHEAD DOOR R-0.86 1\n   ************* Construction=U 0.88 SHGC 0.16 SGL REF-A-L CLR 6MM\n   ************* Construction=U 1.17 SHGC 0.39 SIMPLE GLAZING SKYLIGHT U-1.17 SHGC 0.39\n   ************* Construction=U 1.17 SHGC 0.39 SIMPLE GLAZING SKYLIGHT U-1.17 SHGC 0.39 1\n   ** Warning ** GetInternalHeatGains: People=\"HOSPITAL BASEMENT PEOPLE\" has comfort related schedules but no thermal comfort model selected.\n   **   ~~~   ** If schedules are specified for air velocity, clothing insulation, and/or work efficiency but no thermal comfort\n   **   ~~~   ** thermal comfort model is selected, the schedules will be listed as unused schedules in the .err file.\n   **   ~~~   ** To avoid these errors, select a valid thermal comfort model or eliminate these schedules in the PEOPLE input.\n   ** Warning ** GetInternalHeatGains: People=\"HOSPITAL CORRIDOR PEOPLE\" has comfort related schedules but no thermal comfort model selected.\n   **   ~~~   ** If schedules are specified for air velocity, clothing insulation, and/or work efficiency but no thermal comfort\n   **   ~~~   ** thermal comfort model is selected, the schedules will be listed as unused schedules in the .err file.\n   **   ~~~   ** To avoid these errors, select a valid thermal comfort model or eliminate these schedules in the PEOPLE input.\n   ** Warning ** GetInternalHeatGains: People=\"HOSPITAL CORRIDOR PEOPLE\" has comfort related schedules but no thermal comfort model selected.\n   **   ~~~   ** If schedules are specified for air velocity, clothing insulation, and/or work efficiency but no thermal comfort\n   **   ~~~   ** thermal comfort model is selected, the schedules will be listed as unused schedules in the .err file.\n   **   ~~~   ** To avoid these errors, select a valid thermal comfort model or eliminate these schedules in the PEOPLE input.\n   ** Warning ** GetInternalHeatGains: People=\"HOSPITAL CORRIDOR PEOPLE\" has comfort related schedules but no thermal comfort model selected.\n   **   ~~~   ** If schedules are specified for air velocity, clothing insulation, and/or work efficiency but no thermal comfort\n   **   ~~~   ** thermal comfort model is selected, the schedules will be listed as unused schedules in the .err file.\n   **   ~~~   ** To avoid these errors, select a valid thermal comfort model or eliminate these schedules in the PEOPLE input.\n   ** Warning ** GetInternalHeatGains: People=\"HOSPITAL CORRIDOR PEOPLE\" has comfort related schedules but no thermal comfort model selected.\n   **   ~~~   ** If schedules are specified for air velocity, clothing insulation, and/or work efficiency but no thermal comfort\n   **   ~~~   ** thermal comfort model is selected, the schedules will be listed as unused schedules in the .err file.\n   **   ~~~   ** To avoid these errors, select a valid thermal comfort model or eliminate these schedules in the PEOPLE input.\n   ** Warning ** GetInternalHeatGains: People=\"HOSPITAL CORRIDOR PEOPLE\" has comfort related schedules but no thermal comfort model selected.\n   **   ~~~   ** If schedules are specified for air velocity, clothing insulation, and/or work efficiency but no thermal comfort\n   **   ~~~   ** thermal comfort model is selected, the schedules will be listed as unused schedules in the .err file.\n   **   ~~~   ** To avoid these errors, select a valid thermal comfort model or eliminate these schedules in the PEOPLE input.\n   ** Warning ** GetInternalHeatGains: People=\"HOSPITAL CORRIDOR PEOPLE\" has comfort related schedules but no thermal comfort model selected.\n   **   ~~~   ** If schedules are specified for air velocity, clothing insulation, and/or work efficiency but no thermal comfort\n   **   ~~~   ** thermal comfort model is selected, the schedules will be listed as unused schedules in the .err file.\n   **   ~~~   ** To avoid these errors, select a valid thermal comfort model or eliminate these schedules in the PEOPLE input.\n   ** Warning ** GetInternalHeatGains: People=\"HOSPITAL CORRIDOR PEOPLE\" has comfort related schedules but no thermal comfort model selected.\n   **   ~~~   ** If schedules are specified for air velocity, clothing insulation, and/or work efficiency but no thermal comfort\n   **   ~~~   ** thermal comfort model is selected, the schedules will be listed as unused schedules in the .err file.\n   **   ~~~   ** To avoid these errors, select a valid thermal comfort model or eliminate these schedules in the PEOPLE input.\n   ** Warning ** GetInternalHeatGains: People=\"HOSPITAL DINING PEOPLE\" has comfort related schedules but no thermal comfort model selected.\n   **   ~~~   ** If schedules are specified for air velocity, clothing insulation, and/or work efficiency but no thermal comfort\n   **   ~~~   ** thermal comfort model is selected, the schedules will be listed as unused schedules in the .err file.\n   **   ~~~   ** To avoid these errors, select a valid thermal comfort model or eliminate these schedules in the PEOPLE input.\n   ** Warning ** GetInternalHeatGains: People=\"HOSPITAL ER_EXAM PEOPLE\" has comfort related schedules but no thermal comfort model selected.\n   **   ~~~   ** If schedules are specified for air velocity, clothing insulation, and/or work efficiency but no thermal comfort\n   **   ~~~   ** thermal comfort model is selected, the schedules will be listed as unused schedules in the .err file.\n   **   ~~~   ** To avoid these errors, select a valid thermal comfort model or eliminate these schedules in the PEOPLE input.\n   ** Warning ** GetInternalHeatGains: People=\"HOSPITAL ER_EXAM PEOPLE\" has comfort related schedules but no thermal comfort model selected.\n   **   ~~~   ** If schedules are specified for air velocity, clothing insulation, and/or work efficiency but no thermal comfort\n   **   ~~~   ** thermal comfort model is selected, the schedules will be listed as unused schedules in the .err file.\n   **   ~~~   ** To avoid these errors, select a valid thermal comfort model or eliminate these schedules in the PEOPLE input.\n   ** Warning ** GetInternalHeatGains: People=\"HOSPITAL ER_NURSESTN PEOPLE\" has comfort related schedules but no thermal comfort model selected.\n   **   ~~~   ** If schedules are specified for air velocity, clothing insulation, and/or work efficiency but no thermal comfort\n   **   ~~~   ** thermal comfort model is selected, the schedules will be listed as unused schedules in the .err file.\n   **   ~~~   ** To avoid these errors, select a valid thermal comfort model or eliminate these schedules in the PEOPLE input.\n   ** Warning ** GetInternalHeatGains: People=\"HOSPITAL ER_TRAUMA PEOPLE\" has comfort related schedules but no thermal comfort model selected.\n   **   ~~~   ** If schedules are specified for air velocity, clothing insulation, and/or work efficiency but no thermal comfort\n   **   ~~~   ** thermal comfort model is selected, the schedules will be listed as unused schedules in the .err file.\n   **   ~~~   ** To avoid these errors, select a valid thermal comfort model or eliminate these schedules in the PEOPLE input.\n   ** Warning ** GetInternalHeatGains: People=\"HOSPITAL ER_TRAUMA PEOPLE\" has comfort related schedules but no thermal comfort model selected.\n   **   ~~~   ** If schedules are specified for air velocity, clothing insulation, and/or work efficiency but no thermal comfort\n   **   ~~~   ** thermal comfort model is selected, the schedules will be listed as unused schedules in the .err file.\n   **   ~~~   ** To avoid these errors, select a valid thermal comfort model or eliminate these schedules in the PEOPLE input.\n   ** Warning ** GetInternalHeatGains: People=\"HOSPITAL ER_TRIAGE PEOPLE\" has comfort related schedules but no thermal comfort model selected.\n   **   ~~~   ** If schedules are specified for air velocity, clothing insulation, and/or work efficiency but no thermal comfort\n   **   ~~~   ** thermal comfort model is selected, the schedules will be listed as unused schedules in the .err file.\n   **   ~~~   ** To avoid these errors, select a valid thermal comfort model or eliminate these schedules in the PEOPLE input.\n   ** Warning ** GetInternalHeatGains: People=\"HOSPITAL ICU_NURSESTN PEOPLE\" has comfort related schedules but no thermal comfort model selected.\n   **   ~~~   ** If schedules are specified for air velocity, clothing insulation, and/or work efficiency but no thermal comfort\n   **   ~~~   ** thermal comfort model is selected, the schedules will be listed as unused schedules in the .err file.\n   **   ~~~   ** To avoid these errors, select a valid thermal comfort model or eliminate these schedules in the PEOPLE input.\n   ** Warning ** GetInternalHeatGains: People=\"HOSPITAL ICU_OPEN PEOPLE\" has comfort related schedules but no thermal comfort model selected.\n   **   ~~~   ** If schedules are specified for air velocity, clothing insulation, and/or work efficiency but no thermal comfort\n   **   ~~~   ** thermal comfort model is selected, the schedules will be listed as unused schedules in the .err file.\n   **   ~~~   ** To avoid these errors, select a valid thermal comfort model or eliminate these schedules in the PEOPLE input.\n   ** Warning ** GetInternalHeatGains: People=\"HOSPITAL ICU_PATRM PEOPLE\" has comfort related schedules but no thermal comfort model selected.\n   **   ~~~   ** If schedules are specified for air velocity, clothing insulation, and/or work efficiency but no thermal comfort\n   **   ~~~   ** thermal comfort model is selected, the schedules will be listed as unused schedules in the .err file.\n   **   ~~~   ** To avoid these errors, select a valid thermal comfort model or eliminate these schedules in the PEOPLE input.\n   ** Warning ** GetInternalHeatGains: People=\"HOSPITAL ICU_PATRM PEOPLE\" has comfort related schedules but no thermal comfort model selected.\n   **   ~~~   ** If schedules are specified for air velocity, clothing insulation, and/or work efficiency but no thermal comfort\n   **   ~~~   ** thermal comfort model is selected, the schedules will be listed as unused schedules in the .err file.\n   **   ~~~   ** To avoid these errors, select a valid thermal comfort model or eliminate these schedules in the PEOPLE input.\n   ** Warning ** GetInternalHeatGains: People=\"HOSPITAL ICU_PATRM PEOPLE\" has comfort related schedules but no thermal comfort model selected.\n   **   ~~~   ** If schedules are specified for air velocity, clothing insulation, and/or work efficiency but no thermal comfort\n   **   ~~~   ** thermal comfort model is selected, the schedules will be listed as unused schedules in the .err file.\n   **   ~~~   ** To avoid these errors, select a valid thermal comfort model or eliminate these schedules in the PEOPLE input.\n   ** Warning ** GetInternalHeatGains: People=\"HOSPITAL KITCHEN PEOPLE\" has comfort related schedules but no thermal comfort model selected.\n   **   ~~~   ** If schedules are specified for air velocity, clothing insulation, and/or work efficiency but no thermal comfort\n   **   ~~~   ** thermal comfort model is selected, the schedules will be listed as unused schedules in the .err file.\n   **   ~~~   ** To avoid these errors, select a valid thermal comfort model or eliminate these schedules in the PEOPLE input.\n   ** Warning ** GetInternalHeatGains: People=\"HOSPITAL LAB PEOPLE\" has comfort related schedules but no thermal comfort model selected.\n   **   ~~~   ** If schedules are specified for air velocity, clothing insulation, and/or work efficiency but no thermal comfort\n   **   ~~~   ** thermal comfort model is selected, the schedules will be listed as unused schedules in the .err file.\n   **   ~~~   ** To avoid these errors, select a valid thermal comfort model or eliminate these schedules in the PEOPLE input.\n   ** Warning ** GetInternalHeatGains: People=\"HOSPITAL LAB PEOPLE\" has comfort related schedules but no thermal comfort model selected.\n   **   ~~~   ** If schedules are specified for air velocity, clothing insulation, and/or work efficiency but no thermal comfort\n   **   ~~~   ** thermal comfort model is selected, the schedules will be listed as unused schedules in the .err file.\n   **   ~~~   ** To avoid these errors, select a valid thermal comfort model or eliminate these schedules in the PEOPLE input.\n   ** Warning ** GetInternalHeatGains: People=\"HOSPITAL LOBBY PEOPLE\" has comfort related schedules but no thermal comfort model selected.\n   **   ~~~   ** If schedules are specified for air velocity, clothing insulation, and/or work efficiency but no thermal comfort\n   **   ~~~   ** thermal comfort model is selected, the schedules will be listed as unused schedules in the .err file.\n   **   ~~~   ** To avoid these errors, select a valid thermal comfort model or eliminate these schedules in the PEOPLE input.\n   ** Warning ** GetInternalHeatGains: People=\"HOSPITAL NURSESTN PEOPLE\" has comfort related schedules but no thermal comfort model selected.\n   **   ~~~   ** If schedules are specified for air velocity, clothing insulation, and/or work efficiency but no thermal comfort\n   **   ~~~   ** thermal comfort model is selected, the schedules will be listed as unused schedules in the .err file.\n   **   ~~~   ** To avoid these errors, select a valid thermal comfort model or eliminate these schedules in the PEOPLE input.\n   ** Warning ** GetInternalHeatGains: People=\"HOSPITAL NURSESTN PEOPLE\" has comfort related schedules but no thermal comfort model selected.\n   **   ~~~   ** If schedules are specified for air velocity, clothing insulation, and/or work efficiency but no thermal comfort\n   **   ~~~   ** thermal comfort model is selected, the schedules will be listed as unused schedules in the .err file.\n   **   ~~~   ** To avoid these errors, select a valid thermal comfort model or eliminate these schedules in the PEOPLE input.\n   ** Warning ** GetInternalHeatGains: People=\"HOSPITAL NURSESTN PEOPLE\" has comfort related schedules but no thermal comfort model selected.\n   **   ~~~   ** If schedules are specified for air velocity, clothing insulation, and/or work efficiency but no thermal comfort\n   **   ~~~   ** thermal comfort model is selected, the schedules will be listed as unused schedules in the .err file.\n   **   ~~~   ** To avoid these errors, select a valid thermal comfort model or eliminate these schedules in the PEOPLE input.\n   ** Warning ** GetInternalHeatGains: People=\"HOSPITAL NURSESTN PEOPLE\" has comfort related schedules but no thermal comfort model selected.\n   **   ~~~   ** If schedules are specified for air velocity, clothing insulation, and/or work efficiency but no thermal comfort\n   **   ~~~   ** thermal comfort model is selected, the schedules will be listed as unused schedules in the .err file.\n   **   ~~~   ** To avoid these errors, select a valid thermal comfort model or eliminate these schedules in the PEOPLE input.\n   ** Warning ** GetInternalHeatGains: People=\"HOSPITAL OFFICE PEOPLE\" has comfort related schedules but no thermal comfort model selected.\n   **   ~~~   ** If schedules are specified for air velocity, clothing insulation, and/or work efficiency but no thermal comfort\n   **   ~~~   ** thermal comfort model is selected, the schedules will be listed as unused schedules in the .err file.\n   **   ~~~   ** To avoid these errors, select a valid thermal comfort model or eliminate these schedules in the PEOPLE input.\n   ** Warning ** GetInternalHeatGains: People=\"HOSPITAL OFFICE PEOPLE\" has comfort related schedules but no thermal comfort model selected.\n   **   ~~~   ** If schedules are specified for air velocity, clothing insulation, and/or work efficiency but no thermal comfort\n   **   ~~~   ** thermal comfort model is selected, the schedules will be listed as unused schedules in the .err file.\n   **   ~~~   ** To avoid these errors, select a valid thermal comfort model or eliminate these schedules in the PEOPLE input.\n   ** Warning ** GetInternalHeatGains: People=\"HOSPITAL OFFICE PEOPLE\" has comfort related schedules but no thermal comfort model selected.\n   **   ~~~   ** If schedules are specified for air velocity, clothing insulation, and/or work efficiency but no thermal comfort\n   **   ~~~   ** thermal comfort model is selected, the schedules will be listed as unused schedules in the .err file.\n   **   ~~~   ** To avoid these errors, select a valid thermal comfort model or eliminate these schedules in the PEOPLE input.\n   ** Warning ** GetInternalHeatGains: People=\"HOSPITAL OFFICE PEOPLE\" has comfort related schedules but no thermal comfort model selected.\n   **   ~~~   ** If schedules are specified for air velocity, clothing insulation, and/or work efficiency but no thermal comfort\n   **   ~~~   ** thermal comfort model is selected, the schedules will be listed as unused schedules in the .err file.\n   **   ~~~   ** To avoid these errors, select a valid thermal comfort model or eliminate these schedules in the PEOPLE input.\n   ** Warning ** GetInternalHeatGains: People=\"HOSPITAL OFFICE PEOPLE\" has comfort related schedules but no thermal comfort model selected.\n   **   ~~~   ** If schedules are specified for air velocity, clothing insulation, and/or work efficiency but no thermal comfort\n   **   ~~~   ** thermal comfort model is selected, the schedules will be listed as unused schedules in the .err file.\n   **   ~~~   ** To avoid these errors, select a valid thermal comfort model or eliminate these schedules in the PEOPLE input.\n   ** Warning ** GetInternalHeatGains: People=\"HOSPITAL OR PEOPLE\" has comfort related schedules but no thermal comfort model selected.\n   **   ~~~   ** If schedules are specified for air velocity, clothing insulation, and/or work efficiency but no thermal comfort\n   **   ~~~   ** thermal comfort model is selected, the schedules will be listed as unused schedules in the .err file.\n   **   ~~~   ** To avoid these errors, select a valid thermal comfort model or eliminate these schedules in the PEOPLE input.\n   ** Warning ** GetInternalHeatGains: People=\"HOSPITAL OR PEOPLE\" has comfort related schedules but no thermal comfort model selected.\n   **   ~~~   ** If schedules are specified for air velocity, clothing insulation, and/or work efficiency but no thermal comfort\n   **   ~~~   ** thermal comfort model is selected, the schedules will be listed as unused schedules in the .err file.\n   **   ~~~   ** To avoid these errors, select a valid thermal comfort model or eliminate these schedules in the PEOPLE input.\n   ** Warning ** GetInternalHeatGains: People=\"HOSPITAL OR PEOPLE\" has comfort related schedules but no thermal comfort model selected.\n   **   ~~~   ** If schedules are specified for air velocity, clothing insulation, and/or work efficiency but no thermal comfort\n   **   ~~~   ** thermal comfort model is selected, the schedules will be listed as unused schedules in the .err file.\n   **   ~~~   ** To avoid these errors, select a valid thermal comfort model or eliminate these schedules in the PEOPLE input.\n   ** Warning ** GetInternalHeatGains: People=\"HOSPITAL OR PEOPLE\" has comfort related schedules but no thermal comfort model selected.\n   **   ~~~   ** If schedules are specified for air velocity, clothing insulation, and/or work efficiency but no thermal comfort\n   **   ~~~   ** thermal comfort model is selected, the schedules will be listed as unused schedules in the .err file.\n   **   ~~~   ** To avoid these errors, select a valid thermal comfort model or eliminate these schedules in the PEOPLE input.\n   ** Warning ** GetInternalHeatGains: People=\"HOSPITAL PATROOM PEOPLE\" has comfort related schedules but no thermal comfort model selected.\n   **   ~~~   ** If schedules are specified for air velocity, clothing insulation, and/or work efficiency but no thermal comfort\n   **   ~~~   ** thermal comfort model is selected, the schedules will be listed as unused schedules in the .err file.\n   **   ~~~   ** To avoid these errors, select a valid thermal comfort model or eliminate these schedules in the PEOPLE input.\n   ** Warning ** GetInternalHeatGains: People=\"HOSPITAL PATROOM PEOPLE\" has comfort related schedules but no thermal comfort model selected.\n   **   ~~~   ** If schedules are specified for air velocity, clothing insulation, and/or work efficiency but no thermal comfort\n   **   ~~~   ** thermal comfort model is selected, the schedules will be listed as unused schedules in the .err file.\n   **   ~~~   ** To avoid these errors, select a valid thermal comfort model or eliminate these schedules in the PEOPLE input.\n   ** Warning ** GetInternalHeatGains: People=\"HOSPITAL PATROOM PEOPLE\" has comfort related schedules but no thermal comfort model selected.\n   **   ~~~   ** If schedules are specified for air velocity, clothing insulation, and/or work efficiency but no thermal comfort\n   **   ~~~   ** thermal comfort model is selected, the schedules will be listed as unused schedules in the .err file.\n   **   ~~~   ** To avoid these errors, select a valid thermal comfort model or eliminate these schedules in the PEOPLE input.\n   ** Warning ** GetInternalHeatGains: People=\"HOSPITAL PATROOM PEOPLE\" has comfort related schedules but no thermal comfort model selected.\n   **   ~~~   ** If schedules are specified for air velocity, clothing insulation, and/or work efficiency but no thermal comfort\n   **   ~~~   ** thermal comfort model is selected, the schedules will be listed as unused schedules in the .err file.\n   **   ~~~   ** To avoid these errors, select a valid thermal comfort model or eliminate these schedules in the PEOPLE input.\n   ** Warning ** GetInternalHeatGains: People=\"HOSPITAL PATROOM PEOPLE\" has comfort related schedules but no thermal comfort model selected.\n   **   ~~~   ** If schedules are specified for air velocity, clothing insulation, and/or work efficiency but no thermal comfort\n   **   ~~~   ** thermal comfort model is selected, the schedules will be listed as unused schedules in the .err file.\n   **   ~~~   ** To avoid these errors, select a valid thermal comfort model or eliminate these schedules in the PEOPLE input.\n   ** Warning ** GetInternalHeatGains: People=\"HOSPITAL PATROOM PEOPLE\" has comfort related schedules but no thermal comfort model selected.\n   **   ~~~   ** If schedules are specified for air velocity, clothing insulation, and/or work efficiency but no thermal comfort\n   **   ~~~   ** thermal comfort model is selected, the schedules will be listed as unused schedules in the .err file.\n   **   ~~~   ** To avoid these errors, select a valid thermal comfort model or eliminate these schedules in the PEOPLE input.\n   ** Warning ** GetInternalHeatGains: People=\"HOSPITAL PATROOM PEOPLE\" has comfort related schedules but no thermal comfort model selected.\n   **   ~~~   ** If schedules are specified for air velocity, clothing insulation, and/or work efficiency but no thermal comfort\n   **   ~~~   ** thermal comfort model is selected, the schedules will be listed as unused schedules in the .err file.\n   **   ~~~   ** To avoid these errors, select a valid thermal comfort model or eliminate these schedules in the PEOPLE input.\n   ** Warning ** GetInternalHeatGains: People=\"HOSPITAL PATROOM PEOPLE\" has comfort related schedules but no thermal comfort model selected.\n   **   ~~~   ** If schedules are specified for air velocity, clothing insulation, and/or work efficiency but no thermal comfort\n   **   ~~~   ** thermal comfort model is selected, the schedules will be listed as unused schedules in the .err file.\n   **   ~~~   ** To avoid these errors, select a valid thermal comfort model or eliminate these schedules in the PEOPLE input.\n   ** Warning ** GetInternalHeatGains: People=\"HOSPITAL PATROOM PEOPLE\" has comfort related schedules but no thermal comfort model selected.\n   **   ~~~   ** If schedules are specified for air velocity, clothing insulation, and/or work efficiency but no thermal comfort\n   **   ~~~   ** thermal comfort model is selected, the schedules will be listed as unused schedules in the .err file.\n   **   ~~~   ** To avoid these errors, select a valid thermal comfort model or eliminate these schedules in the PEOPLE input.\n   ** Warning ** GetInternalHeatGains: People=\"HOSPITAL PATROOM PEOPLE\" has comfort related schedules but no thermal comfort model selected.\n   **   ~~~   ** If schedules are specified for air velocity, clothing insulation, and/or work efficiency but no thermal comfort\n   **   ~~~   ** thermal comfort model is selected, the schedules will be listed as unused schedules in the .err file.\n   **   ~~~   ** To avoid these errors, select a valid thermal comfort model or eliminate these schedules in the PEOPLE input.\n   ** Warning ** GetInternalHeatGains: People=\"HOSPITAL PATROOM PEOPLE\" has comfort related schedules but no thermal comfort model selected.\n   **   ~~~   ** If schedules are specified for air velocity, clothing insulation, and/or work efficiency but no thermal comfort\n   **   ~~~   ** thermal comfort model is selected, the schedules will be listed as unused schedules in the .err file.\n   **   ~~~   ** To avoid these errors, select a valid thermal comfort model or eliminate these schedules in the PEOPLE input.\n   ** Warning ** GetInternalHeatGains: People=\"HOSPITAL PATROOM PEOPLE\" has comfort related schedules but no thermal comfort model selected.\n   **   ~~~   ** If schedules are specified for air velocity, clothing insulation, and/or work efficiency but no thermal comfort\n   **   ~~~   ** thermal comfort model is selected, the schedules will be listed as unused schedules in the .err file.\n   **   ~~~   ** To avoid these errors, select a valid thermal comfort model or eliminate these schedules in the PEOPLE input.\n   ** Warning ** GetInternalHeatGains: People=\"HOSPITAL PATROOM PEOPLE\" has comfort related schedules but no thermal comfort model selected.\n   **   ~~~   ** If schedules are specified for air velocity, clothing insulation, and/or work efficiency but no thermal comfort\n   **   ~~~   ** thermal comfort model is selected, the schedules will be listed as unused schedules in the .err file.\n   **   ~~~   ** To avoid these errors, select a valid thermal comfort model or eliminate these schedules in the PEOPLE input.\n   ** Warning ** GetInternalHeatGains: People=\"HOSPITAL PATROOM PEOPLE\" has comfort related schedules but no thermal comfort model selected.\n   **   ~~~   ** If schedules are specified for air velocity, clothing insulation, and/or work efficiency but no thermal comfort\n   **   ~~~   ** thermal comfort model is selected, the schedules will be listed as unused schedules in the .err file.\n   **   ~~~   ** To avoid these errors, select a valid thermal comfort model or eliminate these schedules in the PEOPLE input.\n   ** Warning ** GetInternalHeatGains: People=\"HOSPITAL PATROOM PEOPLE\" has comfort related schedules but no thermal comfort model selected.\n   **   ~~~   ** If schedules are specified for air velocity, clothing insulation, and/or work efficiency but no thermal comfort\n   **   ~~~   ** thermal comfort model is selected, the schedules will be listed as unused schedules in the .err file.\n   **   ~~~   ** To avoid these errors, select a valid thermal comfort model or eliminate these schedules in the PEOPLE input.\n   ** Warning ** GetInternalHeatGains: People=\"HOSPITAL PATROOM PEOPLE\" has comfort related schedules but no thermal comfort model selected.\n   **   ~~~   ** If schedules are specified for air velocity, clothing insulation, and/or work efficiency but no thermal comfort\n   **   ~~~   ** thermal comfort model is selected, the schedules will be listed as unused schedules in the .err file.\n   **   ~~~   ** To avoid these errors, select a valid thermal comfort model or eliminate these schedules in the PEOPLE input.\n   ** Warning ** GetInternalHeatGains: People=\"HOSPITAL PHYSTHERAPY PEOPLE\" has comfort related schedules but no thermal comfort model selected.\n   **   ~~~   ** If schedules are specified for air velocity, clothing insulation, and/or work efficiency but no thermal comfort\n   **   ~~~   ** thermal comfort model is selected, the schedules will be listed as unused schedules in the .err file.\n   **   ~~~   ** To avoid these errors, select a valid thermal comfort model or eliminate these schedules in the PEOPLE input.\n   ** Warning ** GetInternalHeatGains: People=\"HOSPITAL RADIOLOGY PEOPLE\" has comfort related schedules but no thermal comfort model selected.\n   **   ~~~   ** If schedules are specified for air velocity, clothing insulation, and/or work efficiency but no thermal comfort\n   **   ~~~   ** thermal comfort model is selected, the schedules will be listed as unused schedules in the .err file.\n   **   ~~~   ** To avoid these errors, select a valid thermal comfort model or eliminate these schedules in the PEOPLE input.\n   ** Warning ** Seems like you already tried to get a Handle on this Actuator 1times.\n   **   ~~~   ** Occurred for componentType='SCHEDULE:YEAR', controlType='SCHEDULE VALUE', uniqueKey='HOSPITAL CLGSETP_SCH'.\n   **   ~~~   ** You should take note that there is a risk of overwritting.\n   ** Warning ** Seems like you already tried to get a Handle on this Actuator 1times.\n   **   ~~~   ** Occurred for componentType='SCHEDULE:YEAR', controlType='SCHEDULE VALUE', uniqueKey='HOSPITAL HTGSETP_SCH'.\n   **   ~~~   ** You should take note that there is a risk of overwritting.\n   ** Warning ** Seems like you already tried to get a Handle on this Actuator 2times.\n   **   ~~~   ** Occurred for componentType='SCHEDULE:YEAR', controlType='SCHEDULE VALUE', uniqueKey='HOSPITAL CLGSETP_SCH'.\n   **   ~~~   ** You should take note that there is a risk of overwritting.\n   ** Warning ** Seems like you already tried to get a Handle on this Actuator 2times.\n   **   ~~~   ** Occurred for componentType='SCHEDULE:YEAR', controlType='SCHEDULE VALUE', uniqueKey='HOSPITAL HTGSETP_SCH'.\n   **   ~~~   ** You should take note that there is a risk of overwritting.\n   ** Warning ** Seems like you already tried to get a Handle on this Actuator 3times.\n   **   ~~~   ** Occurred for componentType='SCHEDULE:YEAR', controlType='SCHEDULE VALUE', uniqueKey='HOSPITAL CLGSETP_SCH'.\n   **   ~~~   ** You should take note that there is a risk of overwritting.\n   ** Warning ** Seems like you already tried to get a Handle on this Actuator 3times.\n   **   ~~~   ** Occurred for componentType='SCHEDULE:YEAR', controlType='SCHEDULE VALUE', uniqueKey='HOSPITAL HTGSETP_SCH'.\n   **   ~~~   ** You should take note that there is a risk of overwritting.\n   ** Warning ** GetDaylightingControls: Fraction of zone or space controlled by the Daylighting reference points is < 1.0.\n   **   ~~~   ** ..discovered in Daylighting:Controls=\"LOBBY_RECORDS_FLR_1 ZN DAYLIGHTINGCONTROLS\", only 7.600E-002 of the zone or space is controlled.\n   ** Warning ** GetDaylightingControls: Fraction of zone or space controlled by the Daylighting reference points is < 1.0.\n   **   ~~~   ** ..discovered in Daylighting:Controls=\"OFFICE1_FLR_5 ZN DAYLIGHTINGCONTROLS\", only 0.448 of the zone or space is controlled.\n   ** Warning ** GetDaylightingControls: Fraction of zone or space controlled by the Daylighting reference points is < 1.0.\n   **   ~~~   ** ..discovered in Daylighting:Controls=\"OFFICE3_FLR_5 ZN DAYLIGHTINGCONTROLS\", only 0.448 of the zone or space is controlled.\n   ** Warning ** SetUpDesignDay: Entered DesignDay Barometric Pressure=87865 differs by more than 10% from Standard Barometric Pressure=100058.\n   **   ~~~   ** ...occurs in DesignDay=EL PASO INTERNATIONAL AP  UT ANN HTG 99.6% CONDNS DB, Standard Pressure (based on elevation) will be used.\n   ************* Beginning System Sizing Calculations\n   ** Warning ** Since Zone Minimum Air Flow Input Method = CONSTANT, input for Fixed Minimum Air Flow Rate will be ignored.\n   **   ~~~   ** Occurs in AirTerminal:SingleDuct:VAV:Reheat = BASEMENT ZN VAV TERMINAL\n   ** Warning ** Since Zone Minimum Air Flow Input Method = CONSTANT, input for Fixed Minimum Air Flow Rate will be ignored.\n   **   ~~~   ** Occurs in AirTerminal:SingleDuct:VAV:Reheat = CORRIDOR_FLR_1 ZN VAV TERMINAL\n   ** Warning ** Since Zone Minimum Air Flow Input Method = CONSTANT, input for Fixed Minimum Air Flow Rate will be ignored.\n   **   ~~~   ** Occurs in AirTerminal:SingleDuct:VAV:Reheat = CORRIDOR_FLR_2 ZN VAV TERMINAL\n   ** Warning ** Since Zone Minimum Air Flow Input Method = CONSTANT, input for Fixed Minimum Air Flow Rate will be ignored.\n   **   ~~~   ** Occurs in AirTerminal:SingleDuct:VAV:Reheat = CORRIDOR_FLR_5 ZN VAV TERMINAL\n   ** Warning ** Since Zone Minimum Air Flow Input Method = CONSTANT, input for Fixed Minimum Air Flow Rate will be ignored.\n   **   ~~~   ** Occurs in AirTerminal:SingleDuct:VAV:Reheat = CORRIDOR_NW_FLR_3 ZN VAV TERMINAL\n   ** Warning ** Since Zone Minimum Air Flow Input Method = CONSTANT, input for Fixed Minimum Air Flow Rate will be ignored.\n   **   ~~~   ** Occurs in AirTerminal:SingleDuct:VAV:Reheat = CORRIDOR_NW_FLR_4 ZN VAV TERMINAL\n   ** Warning ** Since Zone Minimum Air Flow Input Method = CONSTANT, input for Fixed Minimum Air Flow Rate will be ignored.\n   **   ~~~   ** Occurs in AirTerminal:SingleDuct:VAV:Reheat = CORRIDOR_SE_FLR_3 ZN VAV TERMINAL\n   ** Warning ** Since Zone Minimum Air Flow Input Method = CONSTANT, input for Fixed Minimum Air Flow Rate will be ignored.\n   **   ~~~   ** Occurs in AirTerminal:SingleDuct:VAV:Reheat = CORRIDOR_SE_FLR_4 ZN VAV TERMINAL\n   ** Warning ** Since Zone Minimum Air Flow Input Method = CONSTANT, input for Fixed Minimum Air Flow Rate will be ignored.\n   **   ~~~   ** Occurs in AirTerminal:SingleDuct:VAV:Reheat = DINING_FLR_5 ZN VAV TERMINAL\n   ** Warning ** Since Zone Minimum Air Flow Input Method = CONSTANT, input for Fixed Minimum Air Flow Rate will be ignored.\n   **   ~~~   ** Occurs in AirTerminal:SingleDuct:VAV:Reheat = ER_EXAM1_MULT4_FLR_1 ZN VAV TERMINAL\n   ** Warning ** Since Zone Minimum Air Flow Input Method = CONSTANT, input for Fixed Minimum Air Flow Rate will be ignored.\n   **   ~~~   ** Occurs in AirTerminal:SingleDuct:VAV:Reheat = ER_EXAM3_MULT4_FLR_1 ZN VAV TERMINAL\n   ** Warning ** Since Zone Minimum Air Flow Input Method = CONSTANT, input for Fixed Minimum Air Flow Rate will be ignored.\n   **   ~~~   ** Occurs in AirTerminal:SingleDuct:VAV:Reheat = ER_NURSESTN_LOBBY_FLR_1 ZN VAV TERMINAL\n   ** Warning ** Since Zone Minimum Air Flow Input Method = CONSTANT, input for Fixed Minimum Air Flow Rate will be ignored.\n   **   ~~~   ** Occurs in AirTerminal:SingleDuct:VAV:Reheat = ER_TRAUMA1_FLR_1 ZN VAV TERMINAL\n   ** Warning ** Since Zone Minimum Air Flow Input Method = CONSTANT, input for Fixed Minimum Air Flow Rate will be ignored.\n   **   ~~~   ** Occurs in AirTerminal:SingleDuct:VAV:Reheat = ER_TRAUMA2_FLR_1 ZN VAV TERMINAL\n   ** Warning ** Since Zone Minimum Air Flow Input Method = CONSTANT, input for Fixed Minimum Air Flow Rate will be ignored.\n   **   ~~~   ** Occurs in AirTerminal:SingleDuct:VAV:Reheat = ER_TRIAGE_MULT4_FLR_1 ZN VAV TERMINAL\n   ** Warning ** Since Zone Minimum Air Flow Input Method = CONSTANT, input for Fixed Minimum Air Flow Rate will be ignored.\n   **   ~~~   ** Occurs in AirTerminal:SingleDuct:VAV:Reheat = ICU_FLR_2 ZN VAV TERMINAL\n   ** Warning ** Since Zone Minimum Air Flow Input Method = CONSTANT, input for Fixed Minimum Air Flow Rate will be ignored.\n   **   ~~~   ** Occurs in AirTerminal:SingleDuct:VAV:Reheat = ICU_NURSESTN_LOBBY_FLR_2 ZN VAV TERMINAL\n   ** Warning ** Since Zone Minimum Air Flow Input Method = CONSTANT, input for Fixed Minimum Air Flow Rate will be ignored.\n   **   ~~~   ** Occurs in AirTerminal:SingleDuct:VAV:Reheat = IC_PATROOM1_MULT5_FLR_2 ZN VAV TERMINAL\n   ** Warning ** Since Zone Minimum Air Flow Input Method = CONSTANT, input for Fixed Minimum Air Flow Rate will be ignored.\n   **   ~~~   ** Occurs in AirTerminal:SingleDuct:VAV:Reheat = IC_PATROOM2_FLR_2 ZN VAV TERMINAL\n   ** Warning ** Since Zone Minimum Air Flow Input Method = CONSTANT, input for Fixed Minimum Air Flow Rate will be ignored.\n   **   ~~~   ** Occurs in AirTerminal:SingleDuct:VAV:Reheat = IC_PATROOM3_MULT6_FLR_2 ZN VAV TERMINAL\n   ** Warning ** Since Zone Minimum Air Flow Input Method = CONSTANT, input for Fixed Minimum Air Flow Rate will be ignored.\n   **   ~~~   ** Occurs in AirTerminal:SingleDuct:VAV:Reheat = LAB_FLR_3 ZN VAV TERMINAL\n   ** Warning ** Since Zone Minimum Air Flow Input Method = CONSTANT, input for Fixed Minimum Air Flow Rate will be ignored.\n   **   ~~~   ** Occurs in AirTerminal:SingleDuct:VAV:Reheat = LAB_FLR_4 ZN VAV TERMINAL\n   ** Warning ** Since Zone Minimum Air Flow Input Method = CONSTANT, input for Fixed Minimum Air Flow Rate will be ignored.\n   **   ~~~   ** Occurs in AirTerminal:SingleDuct:VAV:Reheat = LOBBY_RECORDS_FLR_1 ZN VAV TERMINAL\n   ** Warning ** Since Zone Minimum Air Flow Input Method = CONSTANT, input for Fixed Minimum Air Flow Rate will be ignored.\n   **   ~~~   ** Occurs in AirTerminal:SingleDuct:VAV:Reheat = NURSESTN_LOBBY_FLR_3 ZN VAV TERMINAL\n   ** Warning ** Since Zone Minimum Air Flow Input Method = CONSTANT, input for Fixed Minimum Air Flow Rate will be ignored.\n   **   ~~~   ** Occurs in AirTerminal:SingleDuct:VAV:Reheat = NURSESTN_LOBBY_FLR_4 ZN VAV TERMINAL\n   ** Warning ** Since Zone Minimum Air Flow Input Method = CONSTANT, input for Fixed Minimum Air Flow Rate will be ignored.\n   **   ~~~   ** Occurs in AirTerminal:SingleDuct:VAV:Reheat = NURSESTN_LOBBY_FLR_5 ZN VAV TERMINAL\n   ** Warning ** Since Zone Minimum Air Flow Input Method = CONSTANT, input for Fixed Minimum Air Flow Rate will be ignored.\n   **   ~~~   ** Occurs in AirTerminal:SingleDuct:VAV:Reheat = OFFICE1_FLR_5 ZN VAV TERMINAL\n   ** Warning ** Since Zone Minimum Air Flow Input Method = CONSTANT, input for Fixed Minimum Air Flow Rate will be ignored.\n   **   ~~~   ** Occurs in AirTerminal:SingleDuct:VAV:Reheat = OFFICE1_MULT4_FLR_1 ZN VAV TERMINAL\n   ** Warning ** Since Zone Minimum Air Flow Input Method = CONSTANT, input for Fixed Minimum Air Flow Rate will be ignored.\n   **   ~~~   ** Occurs in AirTerminal:SingleDuct:VAV:Reheat = OFFICE2_MULT5_FLR_5 ZN VAV TERMINAL\n   ** Warning ** Since Zone Minimum Air Flow Input Method = CONSTANT, input for Fixed Minimum Air Flow Rate will be ignored.\n   **   ~~~   ** Occurs in AirTerminal:SingleDuct:VAV:Reheat = OFFICE3_FLR_5 ZN VAV TERMINAL\n   ** Warning ** Since Zone Minimum Air Flow Input Method = CONSTANT, input for Fixed Minimum Air Flow Rate will be ignored.\n   **   ~~~   ** Occurs in AirTerminal:SingleDuct:VAV:Reheat = OFFICE4_MULT6_FLR_5 ZN VAV TERMINAL\n   ** Warning ** Since Zone Minimum Air Flow Input Method = CONSTANT, input for Fixed Minimum Air Flow Rate will be ignored.\n   **   ~~~   ** Occurs in AirTerminal:SingleDuct:VAV:Reheat = OR_NURSESTN_LOBBY_FLR_2 ZN VAV TERMINAL\n   ** Warning ** Since Zone Minimum Air Flow Input Method = CONSTANT, input for Fixed Minimum Air Flow Rate will be ignored.\n   **   ~~~   ** Occurs in AirTerminal:SingleDuct:VAV:Reheat = PATROOM1_MULT10_FLR_3 ZN VAV TERMINAL\n   ** Warning ** Since Zone Minimum Air Flow Input Method = CONSTANT, input for Fixed Minimum Air Flow Rate will be ignored.\n   **   ~~~   ** Occurs in AirTerminal:SingleDuct:VAV:Reheat = PATROOM1_MULT10_FLR_4 ZN VAV TERMINAL\n   ** Warning ** Since Zone Minimum Air Flow Input Method = CONSTANT, input for Fixed Minimum Air Flow Rate will be ignored.\n   **   ~~~   ** Occurs in AirTerminal:SingleDuct:VAV:Reheat = PATROOM2_FLR_3 ZN VAV TERMINAL\n   ** Warning ** Since Zone Minimum Air Flow Input Method = CONSTANT, input for Fixed Minimum Air Flow Rate will be ignored.\n   **   ~~~   ** Occurs in AirTerminal:SingleDuct:VAV:Reheat = PATROOM2_FLR_4 ZN VAV TERMINAL\n   ** Warning ** Since Zone Minimum Air Flow Input Method = CONSTANT, input for Fixed Minimum Air Flow Rate will be ignored.\n   **   ~~~   ** Occurs in AirTerminal:SingleDuct:VAV:Reheat = PATROOM3_MULT10_FLR_3 ZN VAV TERMINAL\n   ** Warning ** Since Zone Minimum Air Flow Input Method = CONSTANT, input for Fixed Minimum Air Flow Rate will be ignored.\n   **   ~~~   ** Occurs in AirTerminal:SingleDuct:VAV:Reheat = PATROOM3_MULT10_FLR_4 ZN VAV TERMINAL\n   ** Warning ** Since Zone Minimum Air Flow Input Method = CONSTANT, input for Fixed Minimum Air Flow Rate will be ignored.\n   **   ~~~   ** Occurs in AirTerminal:SingleDuct:VAV:Reheat = PATROOM4_FLR_3 ZN VAV TERMINAL\n   ** Warning ** Since Zone Minimum Air Flow Input Method = CONSTANT, input for Fixed Minimum Air Flow Rate will be ignored.\n   **   ~~~   ** Occurs in AirTerminal:SingleDuct:VAV:Reheat = PATROOM4_FLR_4 ZN VAV TERMINAL\n   ** Warning ** Since Zone Minimum Air Flow Input Method = CONSTANT, input for Fixed Minimum Air Flow Rate will be ignored.\n   **   ~~~   ** Occurs in AirTerminal:SingleDuct:VAV:Reheat = PATROOM5_MULT10_FLR_3 ZN VAV TERMINAL\n   ** Warning ** Since Zone Minimum Air Flow Input Method = CONSTANT, input for Fixed Minimum Air Flow Rate will be ignored.\n   **   ~~~   ** Occurs in AirTerminal:SingleDuct:VAV:Reheat = PATROOM5_MULT10_FLR_4 ZN VAV TERMINAL\n   ** Warning ** Since Zone Minimum Air Flow Input Method = CONSTANT, input for Fixed Minimum Air Flow Rate will be ignored.\n   **   ~~~   ** Occurs in AirTerminal:SingleDuct:VAV:Reheat = PATROOM6_FLR_3 ZN VAV TERMINAL\n   ** Warning ** Since Zone Minimum Air Flow Input Method = CONSTANT, input for Fixed Minimum Air Flow Rate will be ignored.\n   **   ~~~   ** Occurs in AirTerminal:SingleDuct:VAV:Reheat = PATROOM6_FLR_4 ZN VAV TERMINAL\n   ** Warning ** Since Zone Minimum Air Flow Input Method = CONSTANT, input for Fixed Minimum Air Flow Rate will be ignored.\n   **   ~~~   ** Occurs in AirTerminal:SingleDuct:VAV:Reheat = PATROOM7_MULT10_FLR_3 ZN VAV TERMINAL\n   ** Warning ** Since Zone Minimum Air Flow Input Method = CONSTANT, input for Fixed Minimum Air Flow Rate will be ignored.\n   **   ~~~   ** Occurs in AirTerminal:SingleDuct:VAV:Reheat = PATROOM7_MULT10_FLR_4 ZN VAV TERMINAL\n   ** Warning ** Since Zone Minimum Air Flow Input Method = CONSTANT, input for Fixed Minimum Air Flow Rate will be ignored.\n   **   ~~~   ** Occurs in AirTerminal:SingleDuct:VAV:Reheat = PATROOM8_FLR_3 ZN VAV TERMINAL\n   ** Warning ** Since Zone Minimum Air Flow Input Method = CONSTANT, input for Fixed Minimum Air Flow Rate will be ignored.\n   **   ~~~   ** Occurs in AirTerminal:SingleDuct:VAV:Reheat = PATROOM8_FLR_4 ZN VAV TERMINAL\n   ** Warning ** Since Zone Minimum Air Flow Input Method = CONSTANT, input for Fixed Minimum Air Flow Rate will be ignored.\n   **   ~~~   ** Occurs in AirTerminal:SingleDuct:VAV:Reheat = PHYSTHERAPY_FLR_3 ZN VAV TERMINAL\n   ** Warning ** Since Zone Minimum Air Flow Input Method = CONSTANT, input for Fixed Minimum Air Flow Rate will be ignored.\n   **   ~~~   ** Occurs in AirTerminal:SingleDuct:VAV:Reheat = RADIOLOGY_FLR_4 ZN VAV TERMINAL\n   ************* Beginning Plant Sizing Calculations\n   ************* SizeHVACSingleDuct: Potential issue with equipment sizing for AirTerminal:SingleDuct:VAV:Reheat = \"BASEMENT ZN VAV TERMINAL\".\n   **   ~~~   ** User-Specified Minimum Cooling Air Flow Fraction of 0.38086 [m3/s]\n   **   ~~~   ** differs from Design Size Minimum Cooling Air Flow Fraction of 1.00000 [m3/s]\n   **   ~~~   ** This may, or may not, indicate mismatched component sizes.\n   **   ~~~   ** Verify that the value entered is intended and is consistent with other components.\n   ************* SizeHVACSingleDuct: Potential issue with equipment sizing for AirTerminal:SingleDuct:VAV:Reheat = \"BASEMENT ZN VAV TERMINAL\".\n   **   ~~~   ** User-Specified Maximum Flow Fraction during Reheat of 0.50000 []\n   **   ~~~   ** differs from Design Size Maximum Flow Fraction during Reheat of 1.00000 []\n   **   ~~~   ** This may, or may not, indicate mismatched component sizes.\n   **   ~~~   ** Verify that the value entered is intended and is consistent with other components.\n   ************* SizeHVACSingleDuct: Potential issue with equipment sizing for AirTerminal:SingleDuct:VAV:Reheat = \"CORRIDOR_FLR_1 ZN VAV TERMINAL\".\n   **   ~~~   ** User-Specified Minimum Cooling Air Flow Fraction of 0.38086 [m3/s]\n   **   ~~~   ** differs from Design Size Minimum Cooling Air Flow Fraction of 0.73325 [m3/s]\n   **   ~~~   ** This may, or may not, indicate mismatched component sizes.\n   **   ~~~   ** Verify that the value entered is intended and is consistent with other components.\n   ************* SizeHVACSingleDuct: Potential issue with equipment sizing for AirTerminal:SingleDuct:VAV:Reheat = \"CORRIDOR_FLR_1 ZN VAV TERMINAL\".\n   **   ~~~   ** User-Specified Maximum Flow Fraction during Reheat of 0.50000 []\n   **   ~~~   ** differs from Design Size Maximum Flow Fraction during Reheat of 1.00000 []\n   **   ~~~   ** This may, or may not, indicate mismatched component sizes.\n   **   ~~~   ** Verify that the value entered is intended and is consistent with other components.\n   ************* SizeHVACSingleDuct: Potential issue with equipment sizing for AirTerminal:SingleDuct:VAV:Reheat = \"CORRIDOR_FLR_2 ZN VAV TERMINAL\".\n   **   ~~~   ** User-Specified Minimum Cooling Air Flow Fraction of 0.38086 [m3/s]\n   **   ~~~   ** differs from Design Size Minimum Cooling Air Flow Fraction of 0.69757 [m3/s]\n   **   ~~~   ** This may, or may not, indicate mismatched component sizes.\n   **   ~~~   ** Verify that the value entered is intended and is consistent with other components.\n   ************* SizeHVACSingleDuct: Potential issue with equipment sizing for AirTerminal:SingleDuct:VAV:Reheat = \"CORRIDOR_FLR_2 ZN VAV TERMINAL\".\n   **   ~~~   ** User-Specified Maximum Flow Fraction during Reheat of 0.50000 []\n   **   ~~~   ** differs from Design Size Maximum Flow Fraction during Reheat of 1.00000 []\n   **   ~~~   ** This may, or may not, indicate mismatched component sizes.\n   **   ~~~   ** Verify that the value entered is intended and is consistent with other components.\n   ************* SizeHVACSingleDuct: Potential issue with equipment sizing for AirTerminal:SingleDuct:VAV:Reheat = \"CORRIDOR_FLR_5 ZN VAV TERMINAL\".\n   **   ~~~   ** User-Specified Minimum Cooling Air Flow Fraction of 0.24484 [m3/s]\n   **   ~~~   ** differs from Design Size Minimum Cooling Air Flow Fraction of 0.39714 [m3/s]\n   **   ~~~   ** This may, or may not, indicate mismatched component sizes.\n   **   ~~~   ** Verify that the value entered is intended and is consistent with other components.\n   ************* SizeHVACSingleDuct: Potential issue with equipment sizing for AirTerminal:SingleDuct:VAV:Reheat = \"CORRIDOR_FLR_5 ZN VAV TERMINAL\".\n   **   ~~~   ** User-Specified Maximum Flow Fraction during Reheat of 0.50000 []\n   **   ~~~   ** differs from Design Size Maximum Flow Fraction during Reheat of 1.00000 []\n   **   ~~~   ** This may, or may not, indicate mismatched component sizes.\n   **   ~~~   ** Verify that the value entered is intended and is consistent with other components.\n   ************* SizeHVACSingleDuct: Potential issue with equipment sizing for AirTerminal:SingleDuct:VAV:Reheat = \"CORRIDOR_NW_FLR_3 ZN VAV TERMINAL\".\n   **   ~~~   ** User-Specified Minimum Cooling Air Flow Fraction of 0.24484 [m3/s]\n   **   ~~~   ** differs from Design Size Minimum Cooling Air Flow Fraction of 0.49434 [m3/s]\n   **   ~~~   ** This may, or may not, indicate mismatched component sizes.\n   **   ~~~   ** Verify that the value entered is intended and is consistent with other components.\n   ************* SizeHVACSingleDuct: Potential issue with equipment sizing for AirTerminal:SingleDuct:VAV:Reheat = \"CORRIDOR_NW_FLR_3 ZN VAV TERMINAL\".\n   **   ~~~   ** User-Specified Maximum Flow Fraction during Reheat of 0.50000 []\n   **   ~~~   ** differs from Design Size Maximum Flow Fraction during Reheat of 1.00000 []\n   **   ~~~   ** This may, or may not, indicate mismatched component sizes.\n   **   ~~~   ** Verify that the value entered is intended and is consistent with other components.\n   ************* SizeHVACSingleDuct: Potential issue with equipment sizing for AirTerminal:SingleDuct:VAV:Reheat = \"CORRIDOR_NW_FLR_4 ZN VAV TERMINAL\".\n   **   ~~~   ** User-Specified Minimum Cooling Air Flow Fraction of 0.24484 [m3/s]\n   **   ~~~   ** differs from Design Size Minimum Cooling Air Flow Fraction of 0.42319 [m3/s]\n   **   ~~~   ** This may, or may not, indicate mismatched component sizes.\n   **   ~~~   ** Verify that the value entered is intended and is consistent with other components.\n   ************* SizeHVACSingleDuct: Potential issue with equipment sizing for AirTerminal:SingleDuct:VAV:Reheat = \"CORRIDOR_NW_FLR_4 ZN VAV TERMINAL\".\n   **   ~~~   ** User-Specified Maximum Flow Fraction during Reheat of 0.50000 []\n   **   ~~~   ** differs from Design Size Maximum Flow Fraction during Reheat of 1.00000 []\n   **   ~~~   ** This may, or may not, indicate mismatched component sizes.\n   **   ~~~   ** Verify that the value entered is intended and is consistent with other components.\n   ************* SizeHVACSingleDuct: Potential issue with equipment sizing for AirTerminal:SingleDuct:VAV:Reheat = \"CORRIDOR_SE_FLR_3 ZN VAV TERMINAL\".\n   **   ~~~   ** User-Specified Minimum Cooling Air Flow Fraction of 0.24484 [m3/s]\n   **   ~~~   ** differs from Design Size Minimum Cooling Air Flow Fraction of 0.53050 [m3/s]\n   **   ~~~   ** This may, or may not, indicate mismatched component sizes.\n   **   ~~~   ** Verify that the value entered is intended and is consistent with other components.\n   ************* SizeHVACSingleDuct: Potential issue with equipment sizing for AirTerminal:SingleDuct:VAV:Reheat = \"CORRIDOR_SE_FLR_3 ZN VAV TERMINAL\".\n   **   ~~~   ** User-Specified Maximum Flow Fraction during Reheat of 0.50000 []\n   **   ~~~   ** differs from Design Size Maximum Flow Fraction during Reheat of 1.00000 []\n   **   ~~~   ** This may, or may not, indicate mismatched component sizes.\n   **   ~~~   ** Verify that the value entered is intended and is consistent with other components.\n   ************* SizeHVACSingleDuct: Potential issue with equipment sizing for AirTerminal:SingleDuct:VAV:Reheat = \"CORRIDOR_SE_FLR_4 ZN VAV TERMINAL\".\n   **   ~~~   ** User-Specified Minimum Cooling Air Flow Fraction of 0.24484 [m3/s]\n   **   ~~~   ** differs from Design Size Minimum Cooling Air Flow Fraction of 0.46343 [m3/s]\n   **   ~~~   ** This may, or may not, indicate mismatched component sizes.\n   **   ~~~   ** Verify that the value entered is intended and is consistent with other components.\n   ************* SizeHVACSingleDuct: Potential issue with equipment sizing for AirTerminal:SingleDuct:VAV:Reheat = \"CORRIDOR_SE_FLR_4 ZN VAV TERMINAL\".\n   **   ~~~   ** User-Specified Maximum Flow Fraction during Reheat of 0.50000 []\n   **   ~~~   ** differs from Design Size Maximum Flow Fraction during Reheat of 1.00000 []\n   **   ~~~   ** This may, or may not, indicate mismatched component sizes.\n   **   ~~~   ** Verify that the value entered is intended and is consistent with other components.\n   ************* SizeHVACSingleDuct: Potential issue with equipment sizing for AirTerminal:SingleDuct:VAV:Reheat = \"DINING_FLR_5 ZN VAV TERMINAL\".\n   **   ~~~   ** User-Specified Maximum Flow Fraction during Reheat of 0.50000 []\n   **   ~~~   ** differs from Design Size Maximum Flow Fraction during Reheat of 0.64733 []\n   **   ~~~   ** This may, or may not, indicate mismatched component sizes.\n   **   ~~~   ** Verify that the value entered is intended and is consistent with other components.\n   ************* SizeHVACSingleDuct: Potential issue with equipment sizing for AirTerminal:SingleDuct:VAV:Reheat = \"ER_EXAM1_MULT4_FLR_1 ZN VAV TERMINAL\".\n   **   ~~~   ** User-Specified Minimum Cooling Air Flow Fraction of 1.00000 [m3/s]\n   **   ~~~   ** differs from Design Size Minimum Cooling Air Flow Fraction of 0.16268 [m3/s]\n   **   ~~~   ** This may, or may not, indicate mismatched component sizes.\n   **   ~~~   ** Verify that the value entered is intended and is consistent with other components.\n   ************* SizeHVACSingleDuct: Potential issue with equipment sizing for AirTerminal:SingleDuct:VAV:Reheat = \"ER_EXAM1_MULT4_FLR_1 ZN VAV TERMINAL\".\n   **   ~~~   ** User-Specified Maximum Flow Fraction during Reheat of 0.50000 []\n   **   ~~~   ** differs from Design Size Maximum Flow Fraction during Reheat of 1.00000 []\n   **   ~~~   ** This may, or may not, indicate mismatched component sizes.\n   **   ~~~   ** Verify that the value entered is intended and is consistent with other components.\n   ************* SizeHVACSingleDuct: Potential issue with equipment sizing for AirTerminal:SingleDuct:VAV:Reheat = \"ER_EXAM3_MULT4_FLR_1 ZN VAV TERMINAL\".\n   **   ~~~   ** User-Specified Minimum Cooling Air Flow Fraction of 1.00000 [m3/s]\n   **   ~~~   ** differs from Design Size Minimum Cooling Air Flow Fraction of 0.16843 [m3/s]\n   **   ~~~   ** This may, or may not, indicate mismatched component sizes.\n   **   ~~~   ** Verify that the value entered is intended and is consistent with other components.\n   ************* SizeHVACSingleDuct: Potential issue with equipment sizing for AirTerminal:SingleDuct:VAV:Reheat = \"ER_EXAM3_MULT4_FLR_1 ZN VAV TERMINAL\".\n   **   ~~~   ** User-Specified Maximum Flow Fraction during Reheat of 0.50000 []\n   **   ~~~   ** differs from Design Size Maximum Flow Fraction during Reheat of 1.00000 []\n   **   ~~~   ** This may, or may not, indicate mismatched component sizes.\n   **   ~~~   ** Verify that the value entered is intended and is consistent with other components.\n   ************* SizeHVACSingleDuct: Potential issue with equipment sizing for AirTerminal:SingleDuct:VAV:Reheat = \"ER_NURSESTN_LOBBY_FLR_1 ZN VAV TERMINAL\".\n   **   ~~~   ** User-Specified Maximum Flow Fraction during Reheat of 0.50000 []\n   **   ~~~   ** differs from Design Size Maximum Flow Fraction during Reheat of 0.99359 []\n   **   ~~~   ** This may, or may not, indicate mismatched component sizes.\n   **   ~~~   ** Verify that the value entered is intended and is consistent with other components.\n   ************* SizeHVACSingleDuct: Potential issue with equipment sizing for AirTerminal:SingleDuct:VAV:Reheat = \"ER_TRAUMA1_FLR_1 ZN VAV TERMINAL\".\n   **   ~~~   ** User-Specified Minimum Cooling Air Flow Fraction of 1.00000 [m3/s]\n   **   ~~~   ** differs from Design Size Minimum Cooling Air Flow Fraction of 0.10934 [m3/s]\n   **   ~~~   ** This may, or may not, indicate mismatched component sizes.\n   **   ~~~   ** Verify that the value entered is intended and is consistent with ot
[...]
                  "units" : "MBtu",
                  "value" : 0.0
               },
               {
                  "name" : "fuel_oil_no_2_generators_ip",
                  "units" : "MBtu",
                  "value" : 0.0
               },
               {
                  "name" : "fuel_oil_no_2_ip",
                  "units" : "MBtu",
                  "value" : 0.0
               },
               {
                  "name" : "propane_heating_ip",
                  "units" : "MBtu",
                  "value" : 0.0
               },
               {
                  "name" : "propane_cooling_ip",
                  "units" : "MBtu",
                  "value" : 0.0
               },
               {
                  "name" : "propane_interior_lighting_ip",
                  "units" : "MBtu",
                  "value" : 0.0
               },
               {
                  "name" : "propane_exterior_lighting_ip",
                  "units" : "MBtu",
                  "value" : 0.0
               },
               {
                  "name" : "propane_interior_equipment_ip",
                  "units" : "MBtu",
                  "value" : 0.0
               },
               {
                  "name" : "propane_exterior_equipment_ip",
                  "units" : "MBtu",
                  "value" : 0.0
               },
               {
                  "name" : "propane_fans_ip",
                  "units" : "MBtu",
                  "value" : 0.0
               },
               {
                  "name" : "propane_pumps_ip",
                  "units" : "MBtu",
                  "value" : 0.0
               },
               {
                  "name" : "propane_heat_rejection_ip",
                  "units" : "MBtu",
                  "value" : 0.0
               },
               {
                  "name" : "propane_humidification_ip",
                  "units" : "MBtu",
                  "value" : 0.0
               },
               {
                  "name" : "propane_heat_recovery_ip",
                  "units" : "MBtu",
                  "value" : 0.0
               },
               {
                  "name" : "propane_water_systems_ip",
                  "units" : "MBtu",
                  "value" : 0.0
               },
               {
                  "name" : "propane_refrigeration_ip",
                  "units" : "MBtu",
                  "value" : 0.0
               },
               {
                  "name" : "propane_generators_ip",
                  "units" : "MBtu",
                  "value" : 0.0
               },
               {
                  "name" : "propane_ip",
                  "units" : "MBtu",
                  "value" : 0.0
               },
               {
                  "name" : "other_fuel_1_heating_ip",
                  "units" : "MBtu",
                  "value" : 0.0
               },
               {
                  "name" : "other_fuel_1_cooling_ip",
                  "units" : "MBtu",
                  "value" : 0.0
               },
               {
                  "name" : "other_fuel_1_interior_lighting_ip",
                  "units" : "MBtu",
                  "value" : 0.0
               },
               {
                  "name" : "other_fuel_1_exterior_lighting_ip",
                  "units" : "MBtu",
                  "value" : 0.0
               },
               {
                  "name" : "other_fuel_1_interior_equipment_ip",
                  "units" : "MBtu",
                  "value" : 0.0
               },
               {
                  "name" : "other_fuel_1_exterior_equipment_ip",
                  "units" : "MBtu",
                  "value" : 0.0
               },
               {
                  "name" : "other_fuel_1_fans_ip",
                  "units" : "MBtu",
                  "value" : 0.0
               },
               {
                  "name" : "other_fuel_1_pumps_ip",
                  "units" : "MBtu",
                  "value" : 0.0
               },
               {
                  "name" : "other_fuel_1_heat_rejection_ip",
                  "units" : "MBtu",
                  "value" : 0.0
               },
               {
                  "name" : "other_fuel_1_humidification_ip",
                  "units" : "MBtu",
                  "value" : 0.0
               },
               {
                  "name" : "other_fuel_1_heat_recovery_ip",
                  "units" : "MBtu",
                  "value" : 0.0
               },
               {
                  "name" : "other_fuel_1_water_systems_ip",
                  "units" : "MBtu",
                  "value" : 0.0
               },
               {
                  "name" : "other_fuel_1_refrigeration_ip",
                  "units" : "MBtu",
                  "value" : 0.0
               },
               {
                  "name" : "other_fuel_1_generators_ip",
                  "units" : "MBtu",
                  "value" : 0.0
               },
               {
                  "name" : "other_fuel_1_ip",
                  "units" : "MBtu",
                  "value" : 0.0
               },
               {
                  "name" : "other_fuel_2_heating_ip",
                  "units" : "MBtu",
                  "value" : 0.0
               },
               {
                  "name" : "other_fuel_2_cooling_ip",
                  "units" : "MBtu",
                  "value" : 0.0
               },
               {
                  "name" : "other_fuel_2_interior_lighting_ip",
                  "units" : "MBtu",
                  "value" : 0.0
               },
               {
                  "name" : "other_fuel_2_exterior_lighting_ip",
                  "units" : "MBtu",
                  "value" : 0.0
               },
               {
                  "name" : "other_fuel_2_interior_equipment_ip",
                  "units" : "MBtu",
                  "value" : 0.0
               },
               {
                  "name" : "other_fuel_2_exterior_equipment_ip",
                  "units" : "MBtu",
                  "value" : 0.0
               },
               {
                  "name" : "other_fuel_2_fans_ip",
                  "units" : "MBtu",
                  "value" : 0.0
               },
               {
                  "name" : "other_fuel_2_pumps_ip",
                  "units" : "MBtu",
                  "value" : 0.0
               },
               {
                  "name" : "other_fuel_2_heat_rejection_ip",
                  "units" : "MBtu",
                  "value" : 0.0
               },
               {
                  "name" : "other_fuel_2_humidification_ip",
                  "units" : "MBtu",
                  "value" : 0.0
               },
               {
                  "name" : "other_fuel_2_heat_recovery_ip",
                  "units" : "MBtu",
                  "value" : 0.0
               },
               {
                  "name" : "other_fuel_2_water_systems_ip",
                  "units" : "MBtu",
                  "value" : 0.0
               },
               {
                  "name" : "other_fuel_2_refrigeration_ip",
                  "units" : "MBtu",
                  "value" : 0.0
               },
               {
                  "name" : "other_fuel_2_generators_ip",
                  "units" : "MBtu",
                  "value" : 0.0
               },
               {
                  "name" : "other_fuel_2_ip",
                  "units" : "MBtu",
                  "value" : 0.0
               },
               {
                  "name" : "district_cooling_heating_ip",
                  "units" : "MBtu",
                  "value" : 0.0
               },
               {
                  "name" : "district_cooling_cooling_ip",
                  "units" : "MBtu",
                  "value" : 0.0
               },
               {
                  "name" : "district_cooling_interior_lighting_ip",
                  "units" : "MBtu",
                  "value" : 0.0
               },
               {
                  "name" : "district_cooling_exterior_lighting_ip",
                  "units" : "MBtu",
                  "value" : 0.0
               },
               {
                  "name" : "district_cooling_interior_equipment_ip",
                  "units" : "MBtu",
                  "value" : 0.0
               },
               {
                  "name" : "district_cooling_exterior_equipment_ip",
                  "units" : "MBtu",
                  "value" : 0.0
               },
               {
                  "name" : "district_cooling_fans_ip",
                  "units" : "MBtu",
                  "value" : 0.0
               },
               {
                  "name" : "district_cooling_pumps_ip",
                  "units" : "MBtu",
                  "value" : 0.0
               },
               {
                  "name" : "district_cooling_heat_rejection_ip",
                  "units" : "MBtu",
                  "value" : 0.0
               },
               {
                  "name" : "district_cooling_humidification_ip",
                  "units" : "MBtu",
                  "value" : 0.0
               },
               {
                  "name" : "district_cooling_heat_recovery_ip",
                  "units" : "MBtu",
                  "value" : 0.0
               },
               {
                  "name" : "district_cooling_water_systems_ip",
                  "units" : "MBtu",
                  "value" : 0.0
               },
               {
                  "name" : "district_cooling_refrigeration_ip",
                  "units" : "MBtu",
                  "value" : 0.0
               },
               {
                  "name" : "district_cooling_generators_ip",
                  "units" : "MBtu",
                  "value" : 0.0
               },
               {
                  "name" : "district_cooling_ip",
                  "units" : "MBtu",
                  "value" : 0.0
               },
               {
                  "name" : "district_heating_heating_ip",
                  "units" : "MBtu",
                  "value" : 0.0
               },
               {
                  "name" : "district_heating_cooling_ip",
                  "units" : "MBtu",
                  "value" : 0.0
               },
               {
                  "name" : "district_heating_interior_lighting_ip",
                  "units" : "MBtu",
                  "value" : 0.0
               },
               {
                  "name" : "district_heating_exterior_lighting_ip",
                  "units" : "MBtu",
                  "value" : 0.0
               },
               {
                  "name" : "district_heating_interior_equipment_ip",
                  "units" : "MBtu",
                  "value" : 0.0
               },
               {
                  "name" : "district_heating_exterior_equipment_ip",
                  "units" : "MBtu",
                  "value" : 0.0
               },
               {
                  "name" : "district_heating_fans_ip",
                  "units" : "MBtu",
                  "value" : 0.0
               },
               {
                  "name" : "district_heating_pumps_ip",
                  "units" : "MBtu",
                  "value" : 0.0
               },
               {
                  "name" : "district_heating_heat_rejection_ip",
                  "units" : "MBtu",
                  "value" : 0.0
               },
               {
                  "name" : "district_heating_humidification_ip",
                  "units" : "MBtu",
                  "value" : 0.0
               },
               {
                  "name" : "district_heating_heat_recovery_ip",
                  "units" : "MBtu",
                  "value" : 0.0
               },
               {
                  "name" : "district_heating_water_systems_ip",
                  "units" : "MBtu",
                  "value" : 0.0
               },
               {
                  "name" : "district_heating_refrigeration_ip",
                  "units" : "MBtu",
                  "value" : 0.0
               },
               {
                  "name" : "district_heating_generators_ip",
                  "units" : "MBtu",
                  "value" : 0.0
               },
               {
                  "name" : "district_heating_ip",
                  "units" : "MBtu",
                  "value" : 0.0
               },
               {
                  "name" : "typical_iead_roof_highly_reflective_r_20_83",
                  "units" : "ft^2",
                  "value" : 46856.692913385828
               },
               {
                  "name" : "typical_insulated_exterior_mass_wall_r_8_13",
                  "units" : "ft^2",
                  "value" : 54104.736499473016
               },
               {
                  "name" : "typical_insulated_exterior_mass_wall_r_9_62",
                  "units" : "ft^2",
                  "value" : 15517.06217579101
               },
               {
                  "name" : "typical_insulated_metal_door_r_1_43",
                  "units" : "ft^2",
                  "value" : 524.99999999999989
               },
               {
                  "name" : "typical_overhead_door_r_0_86",
                  "units" : "ft^2",
                  "value" : 79.999999999973753
               },
               {
                  "name" : "u_0_62_shgc_0_25_dbl_ref_c_h_clr_6_mm_6_mm_air",
                  "units" : "ft^2",
                  "value" : 9131.9471354220495
               },
               {
                  "name" : "gross_window_wall_ratio",
                  "units" : "%",
                  "value" : 10.640000000000001
               },
               {
                  "name" : "gross_window_wall_ratio_conditioned",
                  "units" : "%",
                  "value" : 10.640000000000001
               },
               {
                  "name" : "skylight_roof_ratio",
                  "units" : "%",
                  "value" : 0.0
               },
               {
                  "name" : "space_type_hospital_basement",
                  "units" : "ft^2",
                  "value" : 40250.0
               },
               {
                  "name" : "space_type_hospital_corridor",
                  "units" : "ft^2",
                  "value" : 42050.000000000015
               },
               {
                  "name" : "space_type_hospital_dining",
                  "units" : "ft^2",
                  "value" : 7499.9999999999973
               },
               {
                  "name" : "space_type_hospital_er_exam",
                  "units" : "ft^2",
                  "value" : 2400.0
               },
               {
                  "name" : "space_type_hospital_er_nurse_stn",
                  "units" : "ft^2",
                  "value" : 13299.999999999998
               },
               {
                  "name" : "space_type_hospital_er_trauma",
                  "units" : "ft^2",
                  "value" : 600.00000000000057
               },
               {
                  "name" : "space_type_hospital_er_triage",
                  "units" : "ft^2",
                  "value" : 1200.0
               },
               {
                  "name" : "space_type_hospital_icu_nurse_stn",
                  "units" : "ft^2",
                  "value" : 7198.5564304461941
               },
               {
                  "name" : "space_type_hospital_icu_open",
                  "units" : "ft^2",
                  "value" : 6651.7142388451457
               },
               {
                  "name" : "space_type_hospital_icu_pat_rm",
                  "units" : "ft^2",
                  "value" : 2775.0000000000023
               },
               {
                  "name" : "space_type_hospital_kitchen",
                  "units" : "ft^2",
                  "value" : 10000.0
               },
               {
                  "name" : "space_type_hospital_lab",
                  "units" : "ft^2",
                  "value" : 5700.0000000000009
               },
               {
                  "name" : "space_type_hospital_lobby",
                  "units" : "ft^2",
                  "value" : 15874.72933070866
               },
               {
                  "name" : "space_type_hospital_nurse_stn",
                  "units" : "ft^2",
                  "value" : 41600.0
               },
               {
                  "name" : "space_type_hospital_office",
                  "units" : "ft^2",
                  "value" : 6899.2125984251988
               },
               {
                  "name" : "space_type_hospital_or",
                  "units" : "ft^2",
                  "value" : 6599.9999999999973
               },
               {
                  "name" : "space_type_hospital_pat_room",
                  "units" : "ft^2",
                  "value" : 20400.787401574802
               },
               {
                  "name" : "space_type_hospital_phys_therapy",
                  "units" : "ft^2",
                  "value" : 5249.9999999999991
               },
               {
                  "name" : "space_type_hospital_radiology",
                  "units" : "ft^2",
                  "value" : 5249.9999999999982
               },
               {
                  "name" : "booster_water_fixture_0_58_gpm_at_180_f",
                  "units" : "gal/min",
                  "value" : 0.58000000000000063
               },
               {
                  "name" : "laundry_service_water_use_2_8_gpm_at_180_f",
                  "units" : "gal/min",
                  "value" : 2.7999999999999989
               },
               {
                  "name" : "main_service_water_use_7_63_gpm_at_140_f",
                  "units" : "gal/min",
                  "value" : 7.629999999999999
               },
               {
                  "name" : "zone_max_hours_over_70_rh",
                  "units" : "hr",
                  "value" : 0
               },
               {
                  "name" : "zone_max_hours_over_55_rh",
                  "units" : "hr",
                  "value" : 1816.0
               },
               {
                  "name" : "num_zones_x_hours_over_70",
                  "units" : "zones",
                  "value" : 0
               },
               {
                  "name" : "num_zones_x_hours_over_55",
                  "units" : "zones",
                  "value" : 36
               },
               {
                  "name" : "inflation_approach",
                  "value" : "Constant Dollar"
               },
               {
                  "name" : "analysis_length",
                  "units" : "yrs",
                  "value" : 25
               },
               {
                  "name" : "number_of_measures_with_warnings",
                  "value" : 0
               },
               {
                  "name" : "number_warnings",
                  "value" : 0
               },
               {
                  "name" : "annual_peak_electric_demand",
                  "units" : "kW",
                  "value" : 1162.7043899999999
               },
               {
                  "name" : "first_year_capital_cost",
                  "units" : "$",
                  "value" : 0.0
               },
               {
                  "name" : "annual_utility_cost",
                  "units" : "$",
                  "value" : 0.0
               },
               {
                  "name" : "total_lifecycle_cost",
                  "units" : "$",
                  "value" : 0.0
               }
            ],
            "step_warnings" : []
         }
      }
   ],
   "updated_at" : "20220326T010136Z",
   "weather_file" : "Red_Bluff.epw"
}