{
   "completed_at" : "20220326T000035Z",
   "completed_status" : "Success",
   "created_at" : "20220325T201142Z",
   "current_step" : 2,
   "eplusout_err" : "Program Version,EnergyPlus, Version 9.6.0-4b123cf80f, YMD=2022.03.25 18:00,\n   ** Warning ** Timestep: Requested number (1) is less than the suggested minimum of 4.\n   **   ~~~   ** Please see entry for Timestep in Input/Output Reference for discussion of considerations.\n   ************* Beginning Zone Sizing Calculations\n   ** Warning ** SetUpDesignDay: Entered DesignDay Barometric Pressure=87865 differs by more than 10% from Standard Barometric Pressure=100058.\n   **   ~~~   ** ...occurs in DesignDay=EL PASO INTERNATIONAL AP  UT ANN CLG .4% CONDNS DB=>MWB, Standard Pressure (based on elevation) will be used.\n   ** Warning ** ProcessScheduleInput: Schedule:Day:Interval=\"ECONOMIZER MAX OA FRACTION 70 PCT DEFAULT\", Blank Schedule Type Limits Name input -- will not be validated.\n   ** Warning ** ProcessScheduleInput: Schedule:Constant=\"ALWAYS OFF DISCRETE\", Blank Schedule Type Limits Name input -- will not be validated.\n   ** Warning ** ProcessScheduleInput: Schedule:Constant=\"ALWAYS ON CONTINUOUS\", Blank Schedule Type Limits Name input -- will not be validated.\n   ** Warning ** CheckUsedConstructions: There are 11 nominally unused constructions in input.\n   **   ~~~   ** Each Unused construction is shown.\n   ************* Construction=SMALLHOTEL 2010 SLAB FLOOR\n   ************* Construction=TYPICAL INSULATED BASEMENT MASS WALL\n   ************* Construction=TYPICAL INSULATED EXTERIOR MASS FLOOR R-9.35\n   ************* Construction=TYPICAL INTERIOR CEILING\n   ************* Construction=TYPICAL INTERIOR DOOR\n   ************* Construction=TYPICAL INTERIOR FLOOR\n   ************* Construction=TYPICAL INTERIOR PARTITION\n   ************* Construction=TYPICAL INTERIOR WINDOW\n   ************* Construction=TYPICAL OVERHEAD DOOR R-0.86\n   ************* Construction=TYPICAL WOOD JOIST ATTIC FLOOR R-37.04\n   ************* Construction=U 1.17 SHGC 0.39 SIMPLE GLAZING SKYLIGHT U-1.17 SHGC 0.39\n   ** Warning ** GetInternalHeatGains: People=\"OFFICE WHOLEBUILDING - SM OFFICE PEOPLE\" has comfort related schedules but no thermal comfort model selected.\n   **   ~~~   ** If schedules are specified for air velocity, clothing insulation, and/or work efficiency but no thermal comfort\n   **   ~~~   ** thermal comfort model is selected, the schedules will be listed as unused schedules in the .err file.\n   **   ~~~   ** To avoid these errors, select a valid thermal comfort model or eliminate these schedules in the PEOPLE input.\n   ** Warning ** GetInternalHeatGains: People=\"OFFICE WHOLEBUILDING - SM OFFICE PEOPLE\" has comfort related schedules but no thermal comfort model selected.\n   **   ~~~   ** If schedules are specified for air velocity, clothing insulation, and/or work efficiency but no thermal comfort\n   **   ~~~   ** thermal comfort model is selected, the schedules will be listed as unused schedules in the .err file.\n   **   ~~~   ** To avoid these errors, select a valid thermal comfort model or eliminate these schedules in the PEOPLE input.\n   ** Warning ** GetInternalHeatGains: People=\"OFFICE WHOLEBUILDING - SM OFFICE PEOPLE\" has comfort related schedules but no thermal comfort model selected.\n   **   ~~~   ** If schedules are specified for air velocity, clothing insulation, and/or work efficiency but no thermal comfort\n   **   ~~~   ** thermal comfort model is selected, the schedules will be listed as unused schedules in the .err file.\n   **   ~~~   ** To avoid these errors, select a valid thermal comfort model or eliminate these schedules in the PEOPLE input.\n   ** Warning ** GetInternalHeatGains: People=\"OFFICE WHOLEBUILDING - SM OFFICE PEOPLE\" has comfort related schedules but no thermal comfort model selected.\n   **   ~~~   ** If schedules are specified for air velocity, clothing insulation, and/or work efficiency but no thermal comfort\n   **   ~~~   ** thermal comfort model is selected, the schedules will be listed as unused schedules in the .err file.\n   **   ~~~   ** To avoid these errors, select a valid thermal comfort model or eliminate these schedules in the PEOPLE input.\n   ** Warning ** GetInternalHeatGains: People=\"OFFICE WHOLEBUILDING - SM OFFICE PEOPLE\" has comfort related schedules but no thermal comfort model selected.\n   **   ~~~   ** If schedules are specified for air velocity, clothing insulation, and/or work efficiency but no thermal comfort\n   **   ~~~   ** thermal comfort model is selected, the schedules will be listed as unused schedules in the .err file.\n   **   ~~~   ** To avoid these errors, select a valid thermal comfort model or eliminate these schedules in the PEOPLE input.\n   ** Warning ** GetDaylightingControls: Fraction of zone or space controlled by the Daylighting reference points is < 1.0.\n   **   ~~~   ** ..discovered in Daylighting:Controls=\"PERIMETER_ZN_1 ZN DAYLIGHTINGCONTROLS\", only 0.000 of the zone or space is controlled.\n   ** Warning ** GetDaylightingControls: Fraction of zone or space controlled by the Daylighting reference points is < 1.0.\n   **   ~~~   ** ..discovered in Daylighting:Controls=\"PERIMETER_ZN_2 ZN DAYLIGHTINGCONTROLS\", only 0.000 of the zone or space is controlled.\n   ** Warning ** GetDaylightingControls: Fraction of zone or space controlled by the Daylighting reference points is < 1.0.\n   **   ~~~   ** ..discovered in Daylighting:Controls=\"PERIMETER_ZN_3 ZN DAYLIGHTINGCONTROLS\", only 0.000 of the zone or space is controlled.\n   ** Warning ** GetDaylightingControls: Fraction of zone or space controlled by the Daylighting reference points is < 1.0.\n   **   ~~~   ** ..discovered in Daylighting:Controls=\"PERIMETER_ZN_4 ZN DAYLIGHTINGCONTROLS\", only 0.000 of the zone or space is controlled.\n   ** Warning ** SetUpDesignDay: Entered DesignDay Barometric Pressure=87865 differs by more than 10% from Standard Barometric Pressure=100058.\n   **   ~~~   ** ...occurs in DesignDay=EL PASO INTERNATIONAL AP  UT ANN HTG 99.6% CONDNS DB, Standard Pressure (based on elevation) will be used.\n   ************* Beginning System Sizing Calculations\n   ** Warning ** GetDXCoils: Coil:Heating:DX:SingleSpeed=\"CORE_ZN ZN HP HTG COIL 32 CLG KBTU/HR 7.7HSPF\", invalid\n   **   ~~~   ** ...Part Load Fraction Correlation Curve Name = DXHEAT-NECB2011-REF-PLFFPLR has out of range value.\n   **   ~~~   ** ...Curve maximum must be <= 1.0, curve max at PLR = 0.99 is 1.005\n   **   ~~~   ** ...Setting curve maximum to 1.0 and simulation continues.\n   ** Warning ** GetDXCoils: Coil:Heating:DX:SingleSpeed=\"CORE_ZN ZN HP HTG COIL 32 CLG KBTU/HR 7.7HSPF\" curve values\n   **   ~~~   ** ... Defrost Energy Input Ratio Function of Temperature Curve Name = CORE_ZN ZN HP HTG COIL DEFROST EIR FUNC OF TEMP CURVE 1 output is not equal to 1.0 (+ or - 10%) at rated conditions.\n   **   ~~~   ** ... Curve output at rated conditions = 0.787\n   ** Warning ** GetDXCoils: Coil:Heating:DX:SingleSpeed=\"PERIMETER_ZN_1 ZN HP HTG COIL 35 CLG KBTU/HR 7.7HSPF\" curve values\n   **   ~~~   ** ... Defrost Energy Input Ratio Function of Temperature Curve Name = PERIMETER_ZN_1 ZN HP HTG COIL DEFROST EIR FUNC OF TEMP CURVE 1 output is not equal to 1.0 (+ or - 10%) at rated conditions.\n   **   ~~~   ** ... Curve output at rated conditions = 0.787\n   ** Warning ** GetDXCoils: Coil:Heating:DX:SingleSpeed=\"PERIMETER_ZN_2 ZN HP HTG COIL 26 CLG KBTU/HR 7.7HSPF\" curve values\n   **   ~~~   ** ... Defrost Energy Input Ratio Function of Temperature Curve Name = PERIMETER_ZN_2 ZN HP HTG COIL DEFROST EIR FUNC OF TEMP CURVE 1 output is not equal to 1.0 (+ or - 10%) at rated conditions.\n   **   ~~~   ** ... Curve output at rated conditions = 0.787\n   ** Warning ** GetDXCoils: Coil:Heating:DX:SingleSpeed=\"PERIMETER_ZN_3 ZN HP HTG COIL 34 CLG KBTU/HR 7.7HSPF\" curve values\n   **   ~~~   ** ... Defrost Energy Input Ratio Function of Temperature Curve Name = PERIMETER_ZN_3 ZN HP HTG COIL DEFROST EIR FUNC OF TEMP CURVE 1 output is not equal to 1.0 (+ or - 10%) at rated conditions.\n   **   ~~~   ** ... Curve output at rated conditions = 0.787\n   ** Warning ** GetDXCoils: Coil:Heating:DX:SingleSpeed=\"PERIMETER_ZN_4 ZN HP HTG COIL 30 CLG KBTU/HR 7.7HSPF\" curve values\n   **   ~~~   ** ... Defrost Energy Input Ratio Function of Temperature Curve Name = PERIMETER_ZN_4 ZN HP HTG COIL DEFROST EIR FUNC OF TEMP CURVE 1 output is not equal to 1.0 (+ or - 10%) at rated conditions.\n   **   ~~~   ** ... Curve output at rated conditions = 0.787\n   ** Warning ** AirLoopHVAC:UnitarySystem = CORE_ZN ZN PSZ-AC-1 UNITARY HP\n   **   ~~~   ** Method used to determine the cooling supply air flow rate is not specified when cooling coil is present.\n   ** Warning ** AirLoopHVAC:UnitarySystem = CORE_ZN ZN PSZ-AC-1 UNITARY HP\n   **   ~~~   ** Method used to determine the heating supply air flow rate is not specified when heating coil is present.\n   ** Warning ** AirLoopHVAC:UnitarySystem = PERIMETER_ZN_1 ZN PSZ-AC-2 UNITARY HP\n   **   ~~~   ** Method used to determine the cooling supply air flow rate is not specified when cooling coil is present.\n   ** Warning ** AirLoopHVAC:UnitarySystem = PERIMETER_ZN_1 ZN PSZ-AC-2 UNITARY HP\n   **   ~~~   ** Method used to determine the heating supply air flow rate is not specified when heating coil is present.\n   ** Warning ** AirLoopHVAC:UnitarySystem = PERIMETER_ZN_2 ZN PSZ-AC-3 UNITARY HP\n   **   ~~~   ** Method used to determine the cooling supply air flow rate is not specified when cooling coil is present.\n   ** Warning ** AirLoopHVAC:UnitarySystem = PERIMETER_ZN_2 ZN PSZ-AC-3 UNITARY HP\n   **   ~~~   ** Method used to determine the heating supply air flow rate is not specified when heating coil is present.\n   ** Warning ** AirLoopHVAC:UnitarySystem = PERIMETER_ZN_3 ZN PSZ-AC-4 UNITARY HP\n   **   ~~~   ** Method used to determine the cooling supply air flow rate is not specified when cooling coil is present.\n   ** Warning ** AirLoopHVAC:UnitarySystem = PERIMETER_ZN_3 ZN PSZ-AC-4 UNITARY HP\n   **   ~~~   ** Method used to determine the heating supply air flow rate is not specified when heating coil is present.\n   ** Warning ** AirLoopHVAC:UnitarySystem = PERIMETER_ZN_4 ZN PSZ-AC-5 UNITARY HP\n   **   ~~~   ** Method used to determine the cooling supply air flow rate is not specified when cooling coil is present.\n   ** Warning ** AirLoopHVAC:UnitarySystem = PERIMETER_ZN_4 ZN PSZ-AC-5 UNITARY HP\n   **   ~~~   ** Method used to determine the heating supply air flow rate is not specified when heating coil is present.\n   ************* Beginning Plant Sizing Calculations\n   ** Warning ** GetOAControllerInputs: Controller:MechanicalVentilation=\"CONTROLLER MECHANICAL VENTILATION 5\n   **   ~~~   ** Cannot locate a matching DesignSpecification:ZoneAirDistribution object for Zone=\"CORE_ZN ZN\".\n   **   ~~~   ** Using default zone air distribution effectiveness of 1.0 for heating and cooling.\n   ** Warning ** GetOAControllerInputs: Controller:MechanicalVentilation=\"CONTROLLER MECHANICAL VENTILATION 1\n   **   ~~~   ** Cannot locate a matching DesignSpecification:ZoneAirDistribution object for Zone=\"PERIMETER_ZN_1 ZN\".\n   **   ~~~   ** Using default zone air distribution effectiveness of 1.0 for heating and cooling.\n   ** Warning ** GetOAControllerInputs: Controller:MechanicalVentilation=\"CONTROLLER MECHANICAL VENTILATION 2\n   **   ~~~   ** Cannot locate a matching DesignSpecification:ZoneAirDistribution object for Zone=\"PERIMETER_ZN_2 ZN\".\n   **   ~~~   ** Using default zone air distribution effectiveness of 1.0 for heating and cooling.\n   ** Warning ** GetOAControllerInputs: Controller:MechanicalVentilation=\"CONTROLLER MECHANICAL VENTILATION 3\n   **   ~~~   ** Cannot locate a matching DesignSpecification:ZoneAirDistribution object for Zone=\"PERIMETER_ZN_3 ZN\".\n   **   ~~~   ** Using default zone air distribution effectiveness of 1.0 for heating and cooling.\n   ** Warning ** GetOAControllerInputs: Controller:MechanicalVentilation=\"CONTROLLER MECHANICAL VENTILATION 4\n   **   ~~~   ** Cannot locate a matching DesignSpecification:ZoneAirDistribution object for Zone=\"PERIMETER_ZN_4 ZN\".\n   **   ~~~   ** Using default zone air distribution effectiveness of 1.0 for heating and cooling.\n   ************* SizeUnitarySystem: Potential issue with equipment sizing for AirLoopHVAC:UnitarySystem CORE_ZN ZN PSZ-AC-1 UNITARY HP\n   **   ~~~   ** User-Specified Maximum Supply Air Temperature [C] = 80.00000\n   **   ~~~   ** differs from Design Size Maximum Supply Air Temperature [C] = 50.00000\n   **   ~~~   ** This may, or may not, indicate mismatched component sizes.\n   **   ~~~   ** Verify that the value entered is intended and is consistent with other components.\n   ** Warning ** The Standard Ratings is calculated for Coil:Cooling:DX:SingleSpeed = CORE_ZN ZN PSZ-AC-1 1SPD DX HP CLG COIL 32KBTU/HR 13.0SEER but not at the AHRI test condition due to curve out of bound.\n   **   ~~~   **  Review the Standard Ratings calculations in the Engineering Reference for this coil type. Also, use Output:Diagnostics, DisplayExtraWarnings for further guidance.\n   **   ~~~   ** CheckCurveLimitsForStandardRatings: The max and/or min limits specified in the corresponding curve objects\n   **   ~~~   **  do not include the AHRI test conditions required to calculate one or more of the Standard Rating values.\n   **   ~~~   ** Coil:Cooling:DX:SingleSpeed=CORE_ZN ZN PSZ-AC-1 1SPD DX HP CLG COIL 32KBTU/HR 13.0SEER:  Integrated Energy Efficiency Ratio (IEER) calculated is not at the AHRI test condition.\n   **   ~~~   **  Check limits in Total Cooling Capacity Function of Temperature Curve, Curve Type = Curve:Biquadratic, Curve Name = PSZ-FINE STORAGE DX COIL CAP-FT\n   **   ~~~   **  Check limits in EIR Function of Temperature Curve, Curve Type = Curve:Biquadratic, Curve Name = PSZ-AC DX COIL EIR-FT\n   ************* SizeUnitarySystem: Potential issue with equipment sizing for AirLoopHVAC:UnitarySystem PERIMETER_ZN_1 ZN PSZ-AC-2 UNITARY HP\n   **   ~~~   ** User-Specified Maximum Supply Air Temperature [C] = 80.00000\n   **   ~~~   ** differs from Design Size Maximum Supply Air Temperature [C] = 50.00000\n   **   ~~~   ** This may, or may not, indicate mismatched component sizes.\n   **   ~~~   ** Verify that the value entered is intended and is consistent with other components.\n   ** Warning ** The Standard Ratings is calculated for Coil:Cooling:DX:SingleSpeed = PERIMETER_ZN_1 ZN PSZ-AC-2 1SPD DX HP CLG COIL 35KBTU/HR 13.0SEER but not at the AHRI test condition due to curve out of bound.\n   **   ~~~   **  Review the Standard Ratings calculations in the Engineering Reference for this coil type. Also, use Output:Diagnostics, DisplayExtraWarnings for further guidance.\n   **   ~~~   ** CheckCurveLimitsForStandardRatings: The max and/or min limits specified in the corresponding curve objects\n   **   ~~~   **  do not include the AHRI test conditions required to calculate one or more of the Standard Rating values.\n   **   ~~~   ** Coil:Cooling:DX:SingleSpeed=PERIMETER_ZN_1 ZN PSZ-AC-2 1SPD DX HP CLG COIL 35KBTU/HR 13.0SEER:  Integrated Energy Efficiency Ratio (IEER) calculated is not at the AHRI test condition.\n   **   ~~~   **  Check limits in Total Cooling Capacity Function of Temperature Curve, Curve Type = Curve:Biquadratic, Curve Name = PSZ-FINE STORAGE DX COIL CAP-FT\n   **   ~~~   **  Check limits in EIR Function of Temperature Curve, Curve Type = Curve:Biquadratic, Curve Name = PSZ-AC DX COIL EIR-FT\n   ************* SizeUnitarySystem: Potential issue with equipment sizing for AirLoopHVAC:UnitarySystem PERIMETER_ZN_2 ZN PSZ-AC-3 UNITARY HP\n   **   ~~~   ** User-Specified Maximum Supply Air Temperature [C] = 80.00000\n   **   ~~~   ** differs from Design Size Maximum Supply Air Temperature [C] = 50.00000\n   **   ~~~   ** This may, or may not, indicate mismatched component sizes.\n   **   ~~~   ** Verify that the value entered is intended and is consistent with other components.\n   ** Warning ** The Standard Ratings is calculated for Coil:Cooling:DX:SingleSpeed = PERIMETER_ZN_2 ZN PSZ-AC-3 1SPD DX HP CLG COIL 26KBTU/HR 13.0SEER but not at the AHRI test condition due to curve out of bound.\n   **   ~~~   **  Review the Standard Ratings calculations in the Engineering Reference for this coil type. Also, use Output:Diagnostics, DisplayExtraWarnings for further guidance.\n   **   ~~~   ** CheckCurveLimitsForStandardRatings: The max and/or min limits specified in the corresponding curve objects\n   **   ~~~   **  do not include the AHRI test conditions required to calculate one or more of the Standard Rating values.\n   **   ~~~   ** Coil:Cooling:DX:SingleSpeed=PERIMETER_ZN_2 ZN PSZ-AC-3 1SPD DX HP CLG COIL 26KBTU/HR 13.0SEER:  Integrated Energy Efficiency Ratio (IEER) calculated is not at the AHRI test condition.\n   **   ~~~   **  Check limits in Total Cooling Capacity Function of Temperature Curve, Curve Type = Curve:Biquadratic, Curve Name = PSZ-FINE STORAGE DX COIL CAP-FT\n   **   ~~~   **  Check limits in EIR Function of Temperature Curve, Curve Type = Curve:Biquadratic, Curve Name = PSZ-AC DX COIL EIR-FT\n   ************* SizeUnitarySystem: Potential issue with equipment sizing for AirLoopHVAC:UnitarySystem PERIMETER_ZN_3 ZN PSZ-AC-4 UNITARY HP\n   **   ~~~   ** User-Specified Maximum Supply Air Temperature [C] = 80.00000\n   **   ~~~   ** differs from Design Size Maximum Supply Air Temperature [C] = 50.00000\n   **   ~~~   ** This may, or may not, indicate mismatched component sizes.\n   **   ~~~   ** Verify that the value entered is intended and is consistent with other components.\n   ** Warning ** The Standard Ratings is calculated for Coil:Cooling:DX:SingleSpeed = PERIMETER_ZN_3 ZN PSZ-AC-4 1SPD DX HP CLG COIL 34KBTU/HR 13.0SEER but not at the AHRI test condition due to curve out of bound.\n   **   ~~~   **  Review the Standard Ratings calculations in the Engineering Reference for this coil type. Also, use Output:Diagnostics, DisplayExtraWarnings for further guidance.\n   **   ~~~   ** CheckCurveLimitsForStandardRatings: The max and/or min limits specified in the corresponding curve objects\n   **   ~~~   **  do not include the AHRI test conditions required to calculate one or more of the Standard Rating values.\n   **   ~~~   ** Coil:Cooling:DX:SingleSpeed=PERIMETER_ZN_3 ZN PSZ-AC-4 1SPD DX HP CLG COIL 34KBTU/HR 13.0SEER:  Integrated Energy Efficiency Ratio (IEER) calculated is not at the AHRI test condition.\n   **   ~~~   **  Check limits in Total Cooling Capacity Function of Temperature Curve, Curve Type = Curve:Biquadratic, Curve Name = PSZ-FINE STORAGE DX COIL CAP-FT\n   **   ~~~   **  Check limits in EIR Function of Temperature Curve, Curve Type = Curve:Biquadratic, Curve Name = PSZ-AC DX COIL EIR-FT\n   ************* SizeUnitarySystem: Potential issue with equipment sizing for AirLoopHVAC:UnitarySystem PERIMETER_ZN_4 ZN PSZ-AC-5 UNITARY HP\n   **   ~~~   ** User-Specified Maximum Supply Air Temperature [C] = 80.00000\n   **   ~~~   ** differs from Design Size Maximum Supply Air Temperature [C] = 50.00000\n   **   ~~~   ** This may, or may not, indicate mismatched component sizes.\n   **   ~~~   ** Verify that the value entered is intended and is consistent with other components.\n   ** Warning ** The Standard Ratings is calculated for Coil:Cooling:DX:SingleSpeed = PERIMETER_ZN_4 ZN PSZ-AC-5 1SPD DX HP CLG COIL 30KBTU/HR 13.0SEER but not at the AHRI test condition due to curve out of bound.\n   **   ~~~   **  Review the Standard Ratings calculations in the Engineering Reference for this coil type. Also, use Output:Diagnostics, DisplayExtraWarnings for further guidance.\n   **   ~~~   ** CheckCurveLimitsForStandardRatings: The max and/or min limits specified in the corresponding curve objects\n   **   ~~~   **  do not include the AHRI test conditions required to calculate one or more of the Standard Rating values.\n   **   ~~~   ** Coil:Cooling:DX:SingleSpeed=PERIMETER_ZN_4 ZN PSZ-AC-5 1SPD DX HP CLG COIL 30KBTU/HR 13.0SEER:  Integrated Energy Efficiency Ratio (IEER) calculated is not at the AHRI test condition.\n   **   ~~~   **  Check limits in Total Cooling Capacity Function of Temperature Curve, Curve Type = Curve:Biquadratic, Curve Name = PSZ-FINE STORAGE DX COIL CAP-FT\n   **   ~~~   **  Check limits in EIR Function of Temperature Curve, Curve Type = Curve:Biquadratic, Curve Name = PSZ-AC DX COIL EIR-FT\n   ** Warning ** Check input. Pump nominal power or motor efficiency is set to 0, for pump=MAIN SERVICE WATER LOOP WATER MAINS PRESSURE DRIVEN\n   ** Warning ** Output:Meter: invalid Key Name=\"DISTRICTCOOLING:FACILITY\" - not found.\n   ** Warning ** Output:Meter: invalid Key Name=\"DISTRICTHEATING:FACILITY\" - not found.\n   ** Warning ** Output:Meter:MeterFileOnly requested for \"Electricity:Facility\" (TimeStep), already on \"Output:Meter\". Will report to both eplusout.eso and eplusout.mtr\n   ************* Testing Individual Branch Integrity\n   ************* All Branches passed integrity testing\n   ************* Testing Individual Supply Air Path Integrity\n   ************* All Supply Air Paths passed integrity testing\n   ************* Testing Individual Return Air Path Integrity\n   ************* All Return Air Paths passed integrity testing\n   ************* No node connection errors were found.\n   ************* Beginning Simulation\n   ** Warning ** In Output:Table:Monthly 'BUILDING ENERGY PERFORMANCE - FUELOILNO1' invalid Variable or Meter Name 'HEATING:FUELOILNO1'\n   ** Warning ** In Output:Table:Monthly 'BUILDING ENERGY PERFORMANCE - FUELOILNO1' invalid Variable or Meter Name 'COOLING:FUELOILNO1'\n   ** Warning ** In Output:Table:Monthly 'BUILDING ENERGY PERFORMANCE - FUELOILNO1' invalid Variable or Meter Name 'INTERIOR LIGHTING:FUELOILNO1'\n   ** Warning ** In Output:Table:Monthly 'BUILDING ENERGY PERFORMANCE - FUELOILNO1' invalid Variable or Meter Name 'EXTERIOR LIGHTING:FUELOILNO1'\n   ** Warning ** In Output:Table:Monthly 'BUILDING ENERGY PERFORMANCE - FUELOILNO1' invalid Variable or Meter Name 'INTERIOR EQUIPMENT:FUELOILNO1'\n   ** Warning ** In Output:Table:Monthly 'BUILDING ENERGY PERFORMANCE - FUELOILNO1' invalid Variable or Meter Name 'EXTERIOR EQUIPMENT:FUELOILNO1'\n   ** Warning ** In Output:Table:Monthly 'BUILDING ENERGY PERFORMANCE - FUELOILNO1' invalid Variable or Meter Name 'FANS:FUELOILNO1'\n   ** Warning ** In Output:Table:Monthly 'BUILDING ENERGY PERFORMANCE - FUELOILNO1' invalid Variable or Meter Name 'PUMPS:FUELOILNO1'\n   ** Warning ** In Output:Table:Monthly 'BUILDING ENERGY PERFORMANCE - FUELOILNO1' invalid Variable or Meter Name 'HEAT REJECTION:FUELOILNO1'\n   ** Warning ** In Output:Table:Monthly 'BUILDING ENERGY PERFORMANCE - FUELOILNO1' invalid Variable or Meter Name 'HUMIDIFICATION:FUELOILNO1'\n   ** Warning ** In Output:Table:Monthly 'BUILDING ENERGY PERFORMANCE - FUELOILNO1' invalid Variable or Meter Name 'HEAT RECOVERY:FUELOILNO1'\n   ** Warning ** In Output:Table:Monthly 'BUILDING ENERGY PERFORMANCE - FUELOILNO1' invalid Variable or Meter Name 'WATER SYSTEMS:FUELOILNO1'\n   ** Warning ** In Output:Table:Monthly 'BUILDING ENERGY PERFORMANCE - FUELOILNO1' invalid Variable or Meter Name 'REFRIGERATION:FUELOILNO1'\n   ** Warning ** In Output:Table:Monthly 'BUILDING ENERGY PERFORMANCE - FUELOILNO1' invalid Variable or Meter Name 'GENERATORS:FUELOILNO1'\n   ** Warning ** In Output:Table:Monthly 'BUILDING ENERGY PERFORMANCE - FUELOILNO2' invalid Variable or Meter Name 'HEATING:FUELOILNO2'\n   ** Warning ** In Output:Table:Monthly 'BUILDING ENERGY PERFORMANCE - FUELOILNO2' invalid Variable or Meter Name 'COOLING:FUELOILNO2'\n   ** Warning ** In Output:Table:Monthly 'BUILDING ENERGY PERFORMANCE - FUELOILNO2' invalid Variable or Meter Name 'INTERIOR LIGHTING:FUELOILNO2'\n   ** Warning ** In Output:Table:Monthly 'BUILDING ENERGY PERFORMANCE - FUELOILNO2' invalid Variable or Meter Name 'EXTERIOR LIGHTING:FUELOILNO2'\n   ** Warning ** In Output:Table:Monthly 'BUILDING ENERGY PERFORMANCE - FUELOILNO2' invalid Variable or Meter Name 'INTERIOR EQUIPMENT:FUELOILNO2'\n   ** Warning ** In Output:Table:Monthly 'BUILDING ENERGY PERFORMANCE - FUELOILNO2' invalid Variable or Meter Name 'EXTERIOR EQUIPMENT:FUELOILNO2'\n   ** Warning ** In Output:Table:Monthly 'BUILDING ENERGY PERFORMANCE - FUELOILNO2' invalid Variable or Meter Name 'FANS:FUELOILNO2'\n   ** Warning ** In Output:Table:Monthly 'BUILDING ENERGY PERFORMANCE - FUELOILNO2' invalid Variable or Meter Name 'PUMPS:FUELOILNO2'\n   ** Warning ** In Output:Table:Monthly 'BUILDING ENERGY PERFORMANCE - FUELOILNO2' invalid Variable or Meter Name 'HEAT REJECTION:FUELOILNO2'\n   ** Warning ** In Output:Table:Monthly 'BUILDING ENERGY PERFORMANCE - FUELOILNO2' invalid Variable or Meter Name 'HUMIDIFICATION:FUELOILNO2'\n   ** Warning ** In Output:Table:Monthly 'BUILDING ENERGY PERFORMANCE - FUELOILNO2' invalid Variable or Meter Name 'HEAT RECOVERY:FUELOILNO2'\n   ** Warning ** In Output:Table:Monthly 'BUILDING ENERGY PERFORMANCE - FUELOILNO2' invalid Variable or Meter Name 'WATER SYSTEMS:FUELOILNO2'\n   ** Warning ** In Output:Table:Monthly 'BUILDING ENERGY PERFORMANCE - FUELOILNO2' invalid Variable or Meter Name 'REFRIGERATION:FUELOILNO2'\n   ** Warning ** In Output:Table:Monthly 'BUILDING ENERGY PERFORMANCE - FUELOILNO2' invalid Variable or Meter Name 'GENERATORS:FUELOILNO2'\n   ** Warning ** In Output:Table:Monthly 'BUILDING ENERGY PERFORMANCE - PROPANEGAS' invalid Variable or Meter Name 'HEATING:PROPANEGAS'\n   ** Warning ** In Output:Table:Monthly 'BUILDING ENERGY PERFORMANCE - PROPANEGAS' invalid Variable or Meter Name 'COOLING:PROPANEGAS'\n   ** Warning ** In Output:Table:Monthly 'BUILDING ENERGY PERFORMANCE - PROPANEGAS' invalid Variable or Meter Name 'INTERIOR LIGHTING:PROPANEGAS'\n   ** Warning ** In Output:Table:Monthly 'BUILDING ENERGY PERFORMANCE - PROPANEGAS' invalid Variable or Meter Name 'EXTERIOR LIGHTING:PROPANEGAS'\n   ** Warning ** In Output:Table:Monthly 'BUILDING ENERGY PERFORMANCE - PROPANEGAS' invalid Variable or Meter Name 'INTERIOR EQUIPMENT:PROPANEGAS'\n   ** Warning ** In Output:Table:Monthly 'BUILDING ENERGY PERFORMANCE - PROPANEGAS' invalid Variable or Meter Name 'EXTERIOR EQUIPMENT:PROPANEGAS'\n   ** Warning ** In Output:Table:Monthly 'BUILDING ENERGY PERFORMANCE - PROPANEGAS' invalid Variable or Meter Name 'FANS:PROPANEGAS'\n   ** Warning ** In Output:Table:Monthly 'BUILDING ENERGY PERFORMANCE - PROPANEGAS' invalid Variable or Meter Name 'PUMPS:PROPANEGAS'\n   ** Warning ** In Output:Table:Monthly 'BUILDING ENERGY PERFORMANCE - PROPANEGAS' invalid Variable or Meter Name 'HEAT REJECTION:PROPANEGAS'\n   ** Warning ** In Output:Table:Monthly 'BUILDING ENERGY PERFORMANCE - PROPANEGAS' invalid Variable or Meter Name 'HUMIDIFICATION:PROPANEGAS'\n   ** Warning ** In Output:Table:Monthly 'BUILDING ENERGY PERFORMANCE - PROPANEGAS' invalid Variable or Meter Name 'HEAT RECOVERY:PROPANEGAS'\n   ** Warning ** In Output:Table:Monthly 'BUILDING ENERGY PERFORMANCE - PROPANEGAS' invalid Variable or Meter Name 'WATER SYSTEMS:PROPANEGAS'\n   ** Warning ** In Output:Table:Monthly 'BUILDING ENERGY PERFORMANCE - PROPANEGAS' invalid Variable or Meter Name 'REFRIGERATION:PROPANEGAS'\n   ** Warning ** In Output:Table:Monthly 'BUILDING ENERGY PERFORMANCE - PROPANEGAS' invalid Variable or Meter Name 'GENERATORS:PROPANEGAS'\n   ** Warning ** In Output:Table:Monthly 'BUILDING ENERGY PERFORMANCE - COAL' invalid Variable or Meter Name 'HEATING:COAL'\n   ** Warning ** In Output:Table:Monthly 'BUILDING ENERGY PERFORMANCE - COAL' invalid Variable or Meter Name 'COOLING:COAL'\n   ** Warning ** In Output:Table:Monthly 'BUILDING ENERGY PERFORMANCE - COAL' invalid Variable or Meter Name 'INTERIOR LIGHTING:COAL'\n   ** Warning ** In Output:Table:Monthly 'BUILDING ENERGY PERFORMANCE - COAL' invalid Variable or Meter Name 'EXTERIOR LIGHTING:COAL'\n   ** Warning ** In Output:Table:Monthly 'BUILDING ENERGY PERFORMANCE - COAL' invalid Variable or Meter Name 'INTERIOR EQUIPMENT:COAL'\n   ** Warning ** In Output:Table:Monthly 'BUILDING ENERGY PERFORMANCE - COAL' invalid Variable or Meter Name 'EXTERIOR EQUIPMENT:COAL'\n   ** Warning ** In Output:Table:Monthly 'BUILDING ENERGY PERFORMANCE - COAL' invalid Variable or Meter Name 'FANS:COAL'\n   ** Warning ** In Output:Table:Monthly 'BUILDING ENERGY PERFORMANCE - COAL' invalid Variable or Meter Name 'PUMPS:COAL'\n   ** Warning ** In Output:Table:Monthly 'BUILDING ENERGY PERFORMANCE - COAL' invalid Variable or Meter Name 'HEAT REJECTION:COAL'\n   ** Warning ** In Output:Table:Monthly 'BUILDING ENERGY PERFORMANCE - COAL' invalid Variable or Meter Name 'HUMIDIFICATION:COAL'\n   ** Warning ** In Output:Table:Monthly 'BUILDING ENERGY PERFORMANCE - COAL' invalid Variable or Meter Name 'HEAT RECOVERY:COAL'\n   ** Warning ** In Output:Table:Monthly 'BUILDING ENERGY PERFORMANCE - COAL' invalid Variable or Meter Name 'WATER SYSTEMS:COAL'\n   ** Warning ** In Output:Table:Monthly 'BUILDING ENERGY PERFORMANCE - COAL' invalid Variable or Meter Name 'REFRIGERATION:COAL'\n   ** Warning ** In Output:Table:Monthly 'BUILDING ENERGY PERFORMANCE - COAL' invalid Variable or Meter Name 'GENERATORS:COAL'\n   ** Warning ** In Output:Table:Monthly 'BUILDING ENERGY PERFORMANCE - DIESEL' invalid Variable or Meter Name 'HEATING:DIESEL'\n   ** Warning ** In Output:Table:Monthly 'BUILDING ENERGY PERFORMANCE - DIESEL' invalid Variable or Meter Name 'COOLING:DIESEL'\n   ** Warning ** In Output:Table:Monthly 'BUILDING ENERGY PERFORMANCE - DIESEL' invalid Variable or Meter Name 'INTERIOR LIGHTING:DIESEL'\n   ** Warning ** In Output:Table:Monthly 'BUILDING ENERGY PERFORMANCE - DIESEL' invalid Variable or Meter Name 'EXTERIOR LIGHTING:DIESEL'\n   ** Warning ** In Output:Table:Monthly 'BUILDING ENERGY PERFORMANCE - DIESEL' invalid Variable or Meter Name 'INTERIOR EQUIPMENT:DIESEL'\n   ** Warning ** In Output:Table:Monthly 'BUILDING ENERGY PERFORMANCE - DIESEL' invalid Variable or Meter Name 'EXTERIOR EQUIPMENT:DIESEL'\n   ** Warning ** In Output:Table:Monthly 'BUILDING ENERGY PERFORMANCE - DIESEL' invalid Variable or Meter Name 'FANS:DIESEL'\n   ** Warning ** In Output:Table:Monthly 'BUILDING ENERGY PERFORMANCE - DIESEL' invalid Variable or Meter Name 'PUMPS:DIESEL'\n   ** Warning ** In Output:Table:Monthly 'BUILDING ENERGY PERFORMANCE - DIESEL' invalid Variable or Meter Name 'HEAT REJECTION:DIESEL'\n   ** Warning ** In Output:Table:Monthly 'BUILDING ENERGY PERFORMANCE - DIESEL' invalid Variable or Meter Name 'HUMIDIFICATION:DIESEL'\n   ** Warning ** In Output:Table:Monthly 'BUILDING ENERGY PERFORMANCE - DIESEL' invalid Variable or Meter Name 'HEAT RECOVERY:DIESEL'\n   ** Warning ** In Output:Table:Monthly 'BUILDING ENERGY PERFORMANCE - DIESEL' invalid Variable or Meter Name 'WATER SYSTEMS:DIESEL'\n   ** Warning ** In Output:Table:Monthly 'BUILDING ENERGY PERFORMANCE - DIESEL' invalid Variable or Meter Name 'REFRIGERATION:DIESEL'\n   ** Warning ** In Output:Table:Monthly 'BUILDING ENERGY PERFORMANCE - DIESEL' invalid Variable or Meter Name 'GENERATORS:DIESEL'\n   ** Warning ** In Output:Table:Monthly 'BUILDING ENERGY PERFORMANCE - GASOLINE' invalid Variable or Meter Name 'HEATING:GASOLINE'\n   ** Warning ** In Output:Table:Monthly 'BUILDING ENERGY PERFORMANCE - GASOLINE' invalid Variable or Meter Name 'COOLING:GASOLINE'\n   ** Warning ** In Output:Table:Monthly 'BUILDING ENERGY PERFORMANCE - GASOLINE' invalid Variable or Meter Name 'INTERIOR LIGHTING:GASOLINE'\n   ** Warning ** In Output:Table:Monthly 'BUILDING ENERGY PERFORMANCE - GASOLINE' invalid Variable or Meter Name 'EXTERIOR LIGHTING:GASOLINE'\n   ** Warning ** In Output:Table:Monthly 'BUILDING ENERGY PERFORMANCE - GASOLINE' invalid Variable or Meter Name 'INTERIOR EQUIPMENT:GASOLINE'\n   ** Warning ** In Output:Table:Monthly 'BUILDING ENERGY PERFORMANCE - GASOLINE' invalid Variable or Meter Name 'EXTERIOR EQUIPMENT:GASOLINE'\n   ** Warning ** In Output:Table:Monthly 'BUILDING ENERGY PERFORMANCE - GASOLINE' invalid Variable or Meter Name 'FANS:GASOLINE'\n   ** Warning ** In Output:Table:Monthly 'BUILDING ENERGY PERFORMANCE - GASOLINE' invalid Variable or Meter Name 'PUMPS:GASOLINE'\n   ** Warning ** In Output:Table:Monthly 'BUILDING ENERGY PERFORMANCE - GASOLINE' invalid Variable or Meter Name 'HEAT REJECTION:GASOLINE'\n   ** Warning ** In Output:Table:Monthly 'BUILDING ENERGY PERFORMANCE - GASOLINE' invalid Variable or Meter Name 'HUMIDIFICATION:GASOLINE'\n   ** Warning ** In Output:Table:Monthly 'BUILDING ENERGY PERFORMANCE - GASOLINE' invalid Variable or Meter Name 'HEAT RECOVERY:GASOLINE'\n   ** Warning ** In Output:Table:Monthly 'BUILDING ENERGY PERFORMANCE - GASOLINE' invalid Variable or Meter Name 'WATER SYSTEMS:GASOLINE'\n   ** Warning ** In Output:Table:Monthly 'BUILDING ENERGY PERFORMANCE - GASOLINE' invalid Variable or Meter Name 'REFRIGERATION:GASOLINE'\n   ** Warning ** In Output:Table:Monthly 'BUILDING ENERGY PERFORMANCE - GASOLINE' invalid Variable or Meter Name 'GENERATORS:GASOLINE'\n   ** Warning ** In Output:Table:Monthly 'BUILDING ENERGY PERFORMANCE - OTHERFUEL1' invalid Variable or Meter Name 'HEATING:OTHERFUEL1'\n   ** Warning ** In Output:Table:Monthly 'BUILDING ENERGY PERFORMANCE - OTHERFUEL1' invalid Variable or Meter Name 'COOLING:OTHERFUEL1'\n   ** Warning ** In Output:Table:Monthly 'BUILDING ENERGY PERFORMANCE - OTHERFUEL1' invalid Variable or Meter Name 'INTERIOR LIGHTING:OTHERFUEL1'\n   ** Warning ** In Output:Table:Monthly 'BUILDING ENERGY PERFORMANCE - OTHERFUEL1' invalid Variable or Meter Name 'EXTERIOR LIGHTING:OTHERFUEL1'\n   ** Warning ** In Output:Table:Monthly 'BUILDING ENERGY PERFORMANCE - OTHERFUEL1' invalid Variable or Meter Name 'INTERIOR EQUIPMENT:OTHERFUEL1'\n   ** Warning ** In Output:Table:Monthly 'BUILDING ENERGY PERFORMANCE - OTHERFUEL1' invalid Variable or Meter Name 'EXTERIOR EQUIPMENT:OTHERFUEL1'\n   ** Warning ** In Output:Table:Monthly 'BUILDING ENERGY PERFORMANCE - OTHERFUEL1' invalid Variable or Meter Name 'FANS:OTHERFUEL1'\n   ** Warning ** In Output:Table:Monthly 'BUILDING ENERGY PERFORMANCE - OTHERFUEL1' invalid Variable or Meter Name 'PUMPS:OTHERFUEL1'\n   ** Warning ** In Output:Table:Monthly 'BUILDING ENERGY PERFORMANCE - OTHERFUEL1' invalid Variable or Meter Name 'HEAT REJECTION:OTHERFUEL1'\n   ** Warning ** In Output:Table:Monthly 'BUILDING ENERGY PERFORMANCE - OTHERFUEL1' invalid Variable or Meter Name 'HUMIDIFICATION:OTHERFUEL1'\n   ** Warning ** In Output:Table:Monthly 'BUILDING ENERGY PERFORMANCE - OTHERFUEL1' invalid Variable or Meter Name 'HEAT RECOVERY:OTHERFUEL1'\n   ** Warning ** In Output:Table:Monthly 'BUILDING ENERGY PERFORMANCE - OTHERFUEL1' invalid Variable or Meter Name 'WATER SYSTEMS:OTHERFUEL1'\n   ** Warning ** In Output:Table:Monthly 'BUILDING ENERGY PERFORMANCE - OTHERFUEL1' invalid Variable or Meter Name 'REFRIGERATION:OTHERFUEL1'\n   ** Warning ** In Output:Table:Monthly 'BUILDING ENERGY PERFORMANCE - OTHERFUEL1' invalid Variable or Meter Name 'GENERATORS:OTHERFUEL1'\n   ** Warning ** In Output:Table:Monthly 'BUILDING ENERGY PERFORMANCE - OTHERFUEL2' invalid Variable or Meter Name 'HEATING:OTHERFUEL2'\n   ** Warning ** In Output:Table:Monthly 'BUILDING ENERGY PERFORMANCE - OTHERFUEL2' invalid Variable or Meter Name 'COOLING:OTHERFUEL2'\n   ** Warning ** In Output:Table:Monthly 'BUILDING ENERGY PERFORMANCE - OTHERFUEL2' invalid Variable or Meter Name 'INTERIOR LIGHTING:OTHERFUEL2'\n   ** Warning ** In Output:Table:Monthly 'BUILDING ENERGY PERFORMANCE - OTHERFUEL2' invalid Variable or Meter Name 'EXTERIOR LIGHTING:OTHERFUEL2'\n   ** Warning ** In Output:Table:Monthly 'BUILDING ENERGY PERFORMANCE - OTHERFUEL2' invalid Variable or Meter Name 'INTERIOR EQUIPMENT:OTHERFUEL2'\n   ** Warning ** In Output:Table:Monthly 'BUILDING ENERGY PERFORMANCE - OTHERFUEL2' invalid Variable or Meter Name 'EXTERIOR EQUIPMENT:OTHERFUEL2'\n   ** Warning ** In Output:Table:Monthly 'BUILDING ENERGY PERFORMANCE - OTHERFUEL2' invalid Variable or Meter Name 'FANS:OTHERFUEL2'\n   ** Warning ** In Output:Table:Monthly 'BUILDING ENERGY PERFORMANCE - OTHERFUEL2' invalid Variable or Meter Name 'PUMPS:OTHERFUEL2'\n   ** Warning ** In Output:Table:Monthly 'BUILDING ENERGY PERFORMANCE - OTHERFUEL2' invalid Variable or Meter Name 'HEAT REJECTION:OTHERFUEL2'\n   ** Warning ** In Output:Table:Monthly 'BUILDING ENERGY PERFORMANCE - OTHERFUEL2' invalid Variable or Meter Name 'HUMIDIFICATION:OTHERFUEL2'\n   ** Warning ** In Output:Table:Monthly 'BUILDING ENERGY PERFORMANCE - OTHERFUEL2' invalid Variable or Meter Name 'HEAT RECOVERY:OTHERFUEL2'\n   ** Warning ** In Output:Table:Monthly 'BUILDING ENERGY PERFORMANCE - OTHERFUEL2' invalid Variable or Meter Name 'WATER SYSTEMS:OTHERFUEL2'\n   ** Warning ** In Output:Table:Monthly 'BUILDING ENERGY PERFORMANCE - OTHERFUEL2' invalid Variable or Meter Name 'REFRIGERATION:OTHERFUEL2'\n   ** Warning ** In Output:Table:Monthly 'BUILDING ENERGY PERFORMANCE - OTHERFUEL2' invalid Variable or Meter Name 'GENERATORS:OTHERFUEL2'\n   ** Warning ** In Output:Table:Monthly 'BUILDING ENERGY PERFORMANCE - ELECTRICITY' invalid Variable or Meter Name 'EXTERIOREQUIPMENT:ELECTRICITY'\n   ** Warning ** In Output:Table:Monthly 'BUILDING ENERGY PERFORMANCE - ELECTRICITY' invalid Variable or Meter Name 'HEATREJECTION:ELECTRICITY'\n   ** Warning ** In Output:Table:Monthly 'BUILDING ENERGY PERFORMANCE - ELECTRICITY' invalid Variable or Meter Name 'HUMIDIFIER:ELECTRICITY'\n   ** Warning ** In Output:Table:Monthly 'BUILDING ENERGY PERFORMANCE - ELECTRICITY' invalid Variable or Meter Name 'HEATRECOVERY:ELECTRICITY'\n   ** Warning ** In Output:Table:Monthly 'BUILDING ENERGY PERFORMANCE - ELECTRICITY' invalid Variable or Meter Name 'COGENERATION:ELECTRICITY'\n   ** Warning ** In Output:Table:Monthly 'BUILDING ENERGY PERFORMANCE - ELECTRICITY' invalid Variable or Meter Name 'REFRIGERATION:ELECTRICITY'\n   ** Warning ** In Output:Table:Monthly 'BUILDING ENERGY PERFORMANCE - NATURAL GAS' invalid Variable or Meter Name 'INTERIOREQUIPMENT:NATURALGAS'\n   ** Warning ** In Output:Table:Monthly 'BUILDING ENERGY PERFORMANCE - NATURAL GAS' invalid Variable or Meter Name 'EXTERIOREQUIPMENT:NATURALGAS'\n   ** Warning ** In Output:Table:Monthly 'BUILDING ENERGY PERFORMANCE - NATURAL GAS' invalid Variable or Meter Name 'COOLING:NATURALGAS'\n   ** Warning ** In Output:Table:Monthly 'BUILDING ENERGY PERFORMANCE - NATURAL GAS' invalid Variable or Meter Name 'WATERSYSTEMS:NATURALGAS'\n   ** Warning ** In Output:Table:Monthly 'BUILDING ENERGY PERFORMANCE - NATURAL GAS' invalid Variable or Meter Name 'COGENERATION:NATURALGAS'\n   ** Warning ** In Output:Table:Monthly 'BUILDING ENERGY PERFORMANCE - DISTRICT HEATING' invalid Variable or Meter Name 'INTERIORLIGHTS:DISTRICTHEATING'\n   ** Warning ** In Output:Table:Monthly 'BUILDING ENERGY PERFORMANCE - DISTRICT HEATING' invalid Variable or Meter Name 'EXTERIORLIGHTS:DISTRICTHEATING'\n   ** Warning ** In Output:Table:Monthly 'BUILDING ENERGY PERFORMANCE - DISTRICT HEATING' invalid Variable or Meter Name 'INTERIOREQUIPMENT:DISTRICTHEATING'\n   ** Warning ** In Output:Table:Monthly 'BUILDING ENERGY PERFORMANCE - DISTRICT HEATING' invalid Variable or Meter Name 'EXTERIOREQUIPMENT:DISTRICTHEATING'\n   ** Warning ** In Output:Table:Monthly 'BUILDING ENERGY PERFORMANCE - DISTRICT HEATING' invalid Variable or Meter Name 'FANS:DISTRICTHEATING'\n   ** Warning ** In Output:Table:Monthly 'BUILDING ENERGY PERFORMANCE - DISTRICT HEATING' invalid Variable or Meter Name 'PUMPS:DISTRICTHEATING'\n   ** Warning ** In Output:Table:Monthly 'BUILDING ENERGY PERFORMANCE - DISTRICT HEATING' invalid Variable or Meter Name 'HEATING:DISTRICTHEATING'\n   ** Warning ** In Output:Table:Monthly 'BUILDING ENERGY PERFORMANCE - DISTRICT HEATING' invalid Variable or Meter Name 'COOLING:DISTRICTHEATING'\n   ** Warning ** In Output:Table:Monthly 'BUILDING ENERGY PERFORMANCE - DISTRICT HEATING' invalid Variable or Meter Name 'HEATREJECTION:DISTRICTHEATING'\n   ** Warning ** In Output:Table:Monthly 'BUILDING ENERGY PERFORMANCE - DISTRICT HEATING' invalid Variable or Meter Name 'HUMIDIFIER:DISTRICTHEATING'\n   ** Warning ** In Output:Table:Monthly 'BUILDING ENERGY PERFORMANCE - DISTRICT HEATING' invalid Variable or Meter Name 'HEATRECOVERY:DISTRICTHEATING'\n   ** Warning ** In Output:Table:Monthly 'BUILDING ENERGY PERFORMANCE - DISTRICT HEATING' invalid Variable or Meter Name 'WATERSYSTEMS:DISTRICTHEATING'\n   ** Warning ** In Output:Table:Monthly 'BUILDING ENERGY PERFORMANCE - DISTRICT HEATING' invalid Variable or Meter Name 'COGENERATION:DISTRICTHEATING'\n   ** Warning ** In Output:Table:Monthly 'BUILDING ENERGY PERFORMANCE - DISTRICT COOLING' invalid Variable or Meter Name 'INTERIORLIGHTS:DISTRICTCOOLING'\n   ** Warning ** In Output:Table:Monthly 'BUILDING ENERGY PERFORMANCE - DISTRICT COOLING' invalid Variable or Meter Name 'EXTERIORLIGHTS:DISTRICTCOOLING'\n   ** Warning ** In Output:Table:Monthly 'BUILDING ENERGY PERFORMANCE - DISTRICT COOLING' invalid Variable or Meter Name 'INTERIOREQUIPMENT:DISTRICTCOOLING'\n   ** Warning ** In Output:Table:Monthly 'BUILDING ENERGY PERFORMANCE - DISTRICT COOLING' invalid Variable or Meter Name 'EXTERIOREQUIPMENT:DISTRICTCOOLING'\n   ** Warning ** In Output:Table:Monthly 'BUILDING ENERGY PERFORMANCE - DISTRICT COOLING' invalid Variable or Meter Name 'FANS:DISTRICTCOOLING'\n   ** Warning ** In Output:Table:Monthly 'BUILDING ENERGY PERFORMANCE - DISTRICT COOLING' invalid Variable or Meter Name 'PUMPS:DISTRICTCOOLING'\n   ** Warning ** In Output:Table:Monthly 'BUILDING ENERGY PERFORMANCE - DISTRICT COOLING' invalid Variable or Meter Name 'HEATING:DISTRICTCOOLING'\n   ** Warning ** In Output:Table:Monthly 'BUILDING ENERGY PERFORMANCE - DISTRICT COOLING' invalid Variable or Meter Name 'COOLING:DISTRICTCOOLING'\n   ** Warning ** In Output:Table:Monthly 'BUILDING ENERGY PERFORMANCE - DISTRICT COOLING' invalid Variable or Meter Name 'HEATREJECTION:DISTRICTCOOLING'\n   ** Warning ** In Output:Table:Monthly 'BUILDING ENERGY PERFORMANCE - DISTRICT COOLING' invalid Variable or Meter Name 'HUMIDIFIER:DISTRICTCOOLING'\n   ** Warning ** In Output:Table:Monthly 'BUILDING ENERGY PERFORMANCE - DISTRICT COOLING' invalid Variable or Meter Name 'HEATRECOVERY:DISTRICTCOOLING'\n   ** Warning ** In Output:Table:Monthly 'BUILDING ENERGY PERFORMANCE - DISTRICT COOLING' invalid Variable or Meter Name 'WATERSYSTEMS:DISTRICTCOOLING'\n   ** Warning ** In Output:Table:Monthly 'BUILDING ENERGY PERFORMANCE - DISTRICT COOLING' invalid Variable or Meter Name 'COGENERATION:DISTRICTCOOLING'\n   ** Warning ** In Output:Table:Monthly 'BUILDING ENERGY PERFORMANCE - ELECTRICITY PEAK DEMAND' invalid Variable or Meter Name 'EXTERIOREQUIPMENT:ELECTRICITY'\n   ** Warning ** In Output:Table:Monthly 'BUILDING ENERGY PERFORMANCE - ELECTRICITY PEAK DEMAND' invalid Variable or Meter Name 'HEATREJECTION:ELECTRICITY'\n   ** Warning ** In Output:Table:Monthly 'BUILDING ENERGY PERFORMANCE - ELECTRICITY PEAK DEMAND' invalid Variable or Meter Name 'HUMIDIFIER:ELECTRICITY'\n   ** Warning ** In Output:Table:Monthly 'BUILDING ENERGY PERFORMANCE - ELECTRICITY PEAK DEMAND' invalid Variable or Meter Name 'HEATRECOVERY:ELECTRICITY'\n   ** Warning ** In Output:Table:Monthly 'BUILDING ENERGY PERFORMANCE - ELECTRICITY PEAK DEMAND' invalid Variable or Meter Name 'COGENERATION:ELECTRICITY'\n   ** Warning ** In Output:Table:Monthly 'BUILDING ENERGY PERFORMANCE - NATURAL GAS PEAK DEMAND' invalid Variable or Meter Name 'INTERIOREQUIPMENT:NATURALGAS'\n   ** Warning ** In Output:Table:Monthly 'BUILDING ENERGY PERFORMANCE - NATURAL GAS PEAK DEMAND' invalid Variable or Meter Name 'EXTERIOREQUIPMENT:NATURALGAS'\n   ** Warning ** In Output:Table:Monthly 'BUILDING ENERGY PERFORMANCE - NATURAL GAS PEAK DEMAND' invalid Variable or Meter Name 'COOLING:NATURALGAS'\n   ** Warning ** In Output:Table:Monthly 'BUILDING ENERGY PERFORMANCE - NATURAL GAS PEAK DEMAND' invalid Variable or Meter Name 'WATERSYSTEMS:NATURALGAS'\n   ** Warning ** In Output:Table:Monthly 'BUILDING ENERGY PERFORMANCE - NATURAL GAS PEAK DEMAND' invalid Variable or Meter Name 'COGENERATION:NATURALGAS'\n   ** Warning ** In Output:Table:Monthly 'BUILDING ENERGY PERFORMANCE - DISTRICT HEATING PEAK DEMAND' invalid Variable or Meter Name 'DISTRICTHEATING:FACILITY'\n   ** Warning ** In Output:Table:Monthly 'BUILDING ENERGY PERFORMANCE - DISTRICT HEATING PEAK DEMAND' invalid Variable or Meter Name 'INTERIORLIGHTS:DISTRICTHEATING'\n   ** Warning ** In Output:Table:Monthly 'BUILDING ENERGY PERFORMANCE - DISTRICT HEATING PEAK DEMAND' invalid Variable or Meter Name 'EXTERIORLIGHTS:DISTRICTHEATING'\n   ** Warning ** In Output:Table:Monthly 'BUILDING ENERGY PERFORMANCE - DISTRICT HEATING PEAK DEMAND' invalid Variable or Meter Name 'INTERIOREQUIPMENT:DISTRICTHEATING'\n   ** Warning ** In Output:Table:Monthly 'BUILDING ENERGY PERFORMANCE - DISTRICT HEATING PEAK DEMAND' invalid Variable or Meter Name 'EXTERIOREQUIPMENT:DISTRICTHEATING'\n   ** Warning ** In Output:Table:Monthly 'BUILDING ENERGY PERFORMANCE - DISTRICT HEATING PEAK DEMAND' invalid Variable or Meter Name 'FANS:DISTRICTHEATING'\n   ** Warning ** In Output:Table:Monthly 'BUILDING ENERGY PERFORMANCE - DISTRICT HEATING PEAK DEMAND' invalid Variable or Meter Name 'PUMPS:DISTRICTHEATING'\n   ** Warning ** In Output:Table:Monthly 'BUILDING ENERGY PERFORMANCE - DISTRICT HEATING PEAK DEMAND' invalid Variable or Meter Name 'HEATING:DISTRICTHEATING'\n   ** Warning ** In Output:Table:Monthly 'BUILDING ENERGY PERFORMANCE - DISTRICT HEATING PEAK DEMAND' invalid Variable or Meter Name 'COOLING:DISTRICTHEATING'\n   ** Warning ** In Output:Table:Monthly 'BUILDING ENERGY PERFORMANCE - DISTRICT HEATING PEAK DEMAND' invalid Variable or Meter Name 'HEATREJECTION:DISTRICTHEATING'\n   ** Warning ** In Output:Table:Monthly 'BUILDING ENERGY PERFORMANCE - DISTRICT HEATING PEAK DEMAND' invalid Variable or Meter Name 'HUMIDIFIER:DISTRICTHEATING'\n   ** Warning ** In Output:Table:Monthly 'BUILDING ENERGY PERFORMANCE - DISTRICT HEATING PEAK DEMAND' invalid Variable or Meter Name 'HEATRECOVERY:DISTRICTHEATING'\n   ** Warning ** In Output:Table:Monthly 'BUILDING ENERGY PERFORMANCE - DISTRICT HEATING PEAK DEMAND' invalid Variable or Meter Name 'WATERSYSTEMS:DISTRICTHEATING'\n   ** Warning ** In Output:Table:Monthly 'BUILDING ENERGY PERFORMANCE - DISTRICT HEATING PEAK DEMAND' invalid Variable or Meter Name 'COGENERATION:DISTRICTHEATING'\n   ** Warning ** In Output:Table:Monthly 'BUILDING ENERGY PERFORMANCE - DISTRICT COOLING PEAK DEMAND' invalid Variable or Meter Name 'DISTRICTCOOLING:FACILITY'\n   ** Warning ** In Output:Table:Monthly 'BUILDING ENERGY PERFORMANCE - DISTRICT COOLING PEAK DEMAND' invalid Variable or Meter Name 'INTERIORLIGHTS:DISTRICTCOOLING'\n   ** Warning ** In Output:Table:Monthly 'BUILDING ENERGY PERFORMANCE - DISTRICT COOLING PEAK DEMAND' invalid Variable or Meter Name 'EXTERIORLIGHTS:DISTRICTCOOLING'\n   ** Warning ** In Output:Table:Monthly 'BUILDING ENERGY PERFORMANCE - DISTRICT COOLING PEAK DEMAND' invalid Variable or Meter Name 'INTERIOREQUIPMENT:DISTRICTCOOLING'\n   ** Warning ** In Output:Table:Monthly 'BUILDING ENERGY PERFORMANCE - DISTRICT COOLING PEAK DEMAND' invalid Variable or Meter Name 'EXTERIOREQUIPMENT:DISTRICTCOOLING'\n   ** Warning ** In Output:Table:Monthly 'BUILDING ENERGY PERFORMANCE - DISTRICT COOLING PEAK DEMAND' invalid Variable or Meter Name 'FANS:DISTRICTCOOLING'\n   ** Warning ** In Output:Table:Monthly 'BUILDING ENERGY PERFORMANCE - DISTRICT COOLING PEAK DEMAND' invalid Variable or Meter Name 'PUMPS:DISTRICTCOOLING'\n   ** Warning ** In Output:Table:Monthly 'BUILDING ENERGY PERFORMANCE - DISTRICT COOLING PEAK DEMAND' invalid Variable or Meter Name 'HEATING:DISTRICTCOOLING'\n   ** Warning ** In Output:Table:Monthly 'BUILDING ENERGY PERFORMANCE - DISTRICT COOLING PEAK DEMAND' invalid Variable or Meter Name 'COOLING:DISTRICTCOOLING'\n   ** Warning ** In Output:Table:Monthly 'BUILDING ENERGY PERFORMANCE - DISTRICT COOLING PEAK DEMAND' invalid Variable or Meter Name 'HEATREJECTION:DISTRICTCOOLING'\n   ** Warning ** In Output:Table:Monthly 'BUILDING ENERGY PERFORMANCE - DISTRICT COOLING PEAK DEMAND' invalid Variable or Meter Name 'HUMIDIFIER:DISTRICTCOOLING'\n   ** Warning ** In Output:Table:Monthly 'BUILDING ENERGY PERFORMANCE - DISTRICT COOLING PEAK DEMAND' invalid Variable or Meter Name 'HEATRECOVERY:DISTRICTCOOLING'\n   ** Warning ** In Output:Table:Monthly 'BUILDING ENERGY PERFORMANCE - DISTRICT COOLING PEAK DEMAND' invalid Variable or Meter Name 'WATERSYSTEMS:DISTRICTCOOLING'\n   ** Warning ** In Output:Table:Monthly 'BUILDING ENERGY PERFORMANCE - DISTRICT COOLING PEAK DEMAND' invalid Variable or Meter Name 'COGENERATION:DISTRICTCOOLING'\n   ** Warning ** Processing Monthly Tabular Reports: BUILDING ENERGY PERFORMANCE - FUELOILNO1\n   **   ~~~   ** ..Variable name=HEATING:FUELOILNO1 not valid for this simulation.\n   **   ~~~   ** ..Variables not valid for this simulation will have \"[Invalid/Undefined]\" in the Units Column of the Table Report.\n   ** Warning ** Processing Monthly Tabular Reports: BUILDING ENERGY PERFORMANCE - FUELOILNO1\n   **   ~~~   ** ..Variable name=COOLING:FUELOILNO1 not valid for this simulation.\n   ** Warning ** Processing Monthly Tabular Reports: BUILDING ENERGY PERFORMANCE - FUELOILNO1\n   **   ~~~   ** ..Variable name=INTERIOR LIGHTING:FUELOILNO1 not valid for this simulation.\n   ** Warning ** Processing Monthly Tabular Reports: BUILDING ENERGY PERFORMANCE - FUELOILNO1\n   **   ~~~   ** ..Variable name=EXTERIOR LIGHTING:FUELOILNO1 not valid for this simulation.\n   ** Warning ** Processing Monthly Tabular Reports: BUILDING ENERGY PERFORMANCE - FUELOILNO1\n   **   ~~~   ** ..Variable name=INTERIOR EQUIPMENT:FUELOILNO1 not valid for this simulation.\n   ** Warning ** Processing Monthly Tabular Reports: BUILDING ENERGY PERFORMANCE - FUELOILNO1\n   **   ~~~   ** ..Variable name=EXTERIOR EQUIPMENT:FUELOILNO1 not valid for this simulation.\n   ** Warning ** Processing Monthly Tabular Reports: BUILDING ENERGY PERFORMANCE - FUELOILNO1\n   **   ~~~   ** ..Variable name=FANS:FUELOILNO1 not valid for this simulation.\n   ** Warning ** Processing Monthly Tabular Reports: BUILDING ENERGY PERFORMANCE - FUELOILNO1\n   **   ~~~   ** ..Variable name=PUMPS:FUELOILNO1 not valid for this simulation.\n   ** Warning ** Processing Monthly Tabular Reports: BUILDING ENERGY PERFORMANCE - FUELOILNO1\n   **   ~~~   ** ..Variable name=HEAT REJECTION:FUELOILNO1 not valid for this simulation.\n   ** Warning ** Processing Monthly Tabular Reports: BUILDING ENERGY PERFORMANCE - FUELOILNO1\n   **   ~~~   ** ..Variable name=HUMIDIFICATION:FUELOILNO1 not valid for this simulation.\n   ** Warning ** Processing Monthly Tabular Reports: BUILDING ENERGY PERFORMANCE - FUELOILNO1\n   **   ~~~   ** ..Variable name=HEAT RECOVERY:FUELOILNO1 not valid for this simulation.\n   ** Warning ** Processing Monthly Tabular Reports: BUILDING ENERGY PERFORMANCE - FUELOILNO1\n   **   ~~~   ** ..Variable name=WATER SYSTEMS:FUELOILNO1 not valid for this simulation.\n   ** Warning ** Processing Monthly Tabular Reports: BUILDING ENERGY PERFORMANCE - FUELOILNO1\n   **   ~~~   ** ..Variable name=REFRIGERATION:FUELOILNO1 not valid for this simulation.\n   ** Warning ** Processing Monthly Tabular Reports: BUILDING ENERGY PERFORMANCE - FUELOILNO1\n   **   ~~~   ** ..Variable name=GENERATORS:FUELOILNO1 not valid for this simulation.\n   ** Warning ** Processing Monthly Tabular Reports: BUILDING ENERGY PERFORMANCE - FUELOILNO2\n   **   ~~~   ** ..Variable name=HEATING:FUELOILNO2 not valid for this simulation.\n   ** Warning ** Processing Monthly Tabular Reports: BUILDING ENERGY PERFORMANCE - FUELOILNO2\n   **   ~~~   ** ..Variable name=COOLING:FUELOILNO2 not valid for this simulation.\n   ** Warning ** Processing Monthly Tabular Reports: BUILDING ENERGY PERFORMANCE - FUELOILNO2\n   **   ~~~   ** ..Variable name=INTERIOR LIGHTING:FUELOILNO2 not valid for this simulation.\n   ** Warning ** Processing Monthly Tabular Reports: BUILDING ENERGY PERFORMANCE - FUELOILNO2\n   **   ~~~   ** ..Variable name=EXTERIOR LIGHTING:FUELOILNO2 not valid for this simulation.\n   ** Warning ** Processing Monthly Tabular Reports: BUILDING ENERGY PERFORMANCE - FUELOILNO2\n   **   ~~~   ** ..Variable name=INTERIOR EQUIPMENT:FUELOILNO2 not valid for this simulation.\n   ** Warning ** Processing Monthly Tabular Reports: BUILDING ENERGY PERFORMANCE - FUELOILNO2\n   **   ~~~   ** ..Variable name=EXTERIOR EQUIPMENT:FUELOILNO2 not valid for this simulation.\n   ** Warning ** Processing Monthly Tabular Reports: BUILDING ENERGY PERFORMANCE - FUELOILNO2\n   **   ~~~   ** ..Variable name=FANS:FUELOILNO2 not valid for this simulation.\n   ** Warning ** Processing Monthly Tabular Reports: BUILDING ENERGY PERFORMANCE - FUELOILNO2\n   **   ~~~   ** ..Variable name=PUMPS:FUELOILNO2 not valid for this simulation.\n   ** Warning ** Processing Monthly Tabular Reports: BUILDING ENERGY PERFORMANCE - FUELOILNO2\n   **   ~~~   ** ..Variable name=HEAT REJECTION:FUELOILNO2 not valid for this simulation.\n   ** Warning ** Processing Monthly Tabular Reports: BUILDING ENERGY PERFORMANCE - FUELOILNO2\n   **   ~~~   ** ..Variable name=HUMIDIFICATION:FUELOILNO2 not valid for this simulation.\n   ** Warning ** Processing Monthly Tabular Reports: BUILDING ENERGY PERFORMANCE - FUELOILNO2\n   **   ~~~   ** ..Variable name=HEAT RECOVERY:FUELOILNO2 not valid for this simulation.\n   ** Warning ** Processing Monthly Tabular Reports: BUILDING ENERGY PERFORMANCE - FUELOILNO2\n   **   ~~~   ** ..Variable name=WATER SYSTEMS:FUELOILNO2 not valid for this simulation.\n   ** Warning ** Processing Monthly Tabular Reports: BUILDING ENERGY PERFORMANCE - FUELOILNO2\n   **   ~~~   ** ..Variable name=REFRIGERATION:FUELOILNO2 not valid for this simulation.\n   ** Warning ** Processing Monthly Tabular Reports: BUILDING ENERGY PERFORMANCE - FUELOILNO2\n   **   ~~~   ** ..Variable name=GENERATORS:FUELOILNO2 not valid for this simulation.\n   ** Warning ** Processing Monthly Tabular Reports: BUILDING ENERGY PERFORMANCE - PROPANEGAS\n   **   ~~~   ** ..Variable name=HEATING:PROPANEGAS not valid for this simulation.\n   ** Warning ** Processing Monthly Tabular Reports: BUILDING ENERGY PERFORMANCE - PROPANEGAS\n   **   ~~~   ** ..Variable name=COOLING:PROPANEGAS not valid for this simulation.\n   ** Warning ** Processing Monthly Tabular Reports: BUILDING ENERGY PERFORMANCE - PROPANEGAS\n   **   ~~~   ** ..Variable name=INTERIOR LIGHTING:PROPANEGAS not valid for this simulation.\n   ** Warning ** Processing Monthly Tabular Reports: BUILDING ENERGY PERFORMANCE - PROPANEGAS\n   **   ~~~   ** ..Variable name=EXTERIOR LIGHTING:PROPANEGAS not valid for this simulation.\n   ** Warning ** Processing Monthly Tabular Reports: BUILDING ENERGY PERFORMANCE - PROPANEGAS\n   **   ~~~   ** ..Variable name=INTERIOR EQUIPMENT:PROPANEGAS not valid for this simulation.\n   ** Warning ** Processing Monthly Tabular Reports: BUILDING ENERGY PERFORMANCE - PROPANEGAS\n   **   ~~~   ** ..Variable name=EXTERIOR EQUIPMENT:PROPANEGAS not valid for this simulation.\n   ** Warning ** Processing Monthly Tabular Reports: BUILDING ENERGY PERFORMANCE - PROPANEGAS\n   **   ~~~   ** ..Variable name=FANS:PROPANEGAS not valid for this simulation.\n   ** Warning ** Processing Monthly Tabular Reports: BUILDING ENERGY PERFORMANCE - PROPANEGAS\n   **   ~~~   ** ..Variable name=PUMPS:PROPANEGAS not valid for this simulation.\n   ** Warning ** Processing Monthly Tabular Reports: BUILDING ENERGY PERFORMANCE - PROPANEGAS\n   **   ~~~   ** ..Variable name=HEAT REJECTION:PROPANEGAS not valid for this simulation.\n   ** Warning ** Processing Monthly Tabular Reports: BUILDING ENERGY PERFORMANCE - PROPANEGAS\n   **   ~~~   ** ..Variable name=HUMIDIFICATION:PROPANEGAS not valid for this simulation.\n   ** Warning ** Processing Monthly Tabular Reports: BUILDING ENERGY PERFORMANCE - PROPANEGAS\n   **   ~~~   ** ..Variable name=HEAT RECOVERY:PROPANEGAS not valid for this simulation.\n   ** Warning ** Processing Monthly Tabular Reports: BUILDING ENERGY PERFORMANCE - PROPANEGAS\n   **   ~~~   ** ..Variable name=WATER SYSTEMS:PROPANEGAS not valid for this simulation.\n   ** Warning ** Processing Monthly Tabular Reports: BUILDING ENERGY PERFORMANCE - PROPANEGAS\n   **   ~~~   ** ..Variable name=REFRIGERATION:PROPANEGAS not valid for this simulation.\n   ** Warning ** Processing Monthly Tabular Reports: BUILDING ENERGY PERFORMANCE - PROPANEGAS\n   **   ~~~   ** ..Variable name=GENERATORS:PROPANEGAS not valid for this simulation.\n   ** Warning ** Processing Monthly Tabular Reports: BUILDING ENERGY PERFORMANCE - COAL\n   **   ~~~   ** ..Variable name=HEATING:COAL not valid for this simulation.\n   ** Warning ** Processing Monthly Tabular Reports: BUILDING ENERGY PERFORMANCE - COAL\n   **   ~~~   ** ..Variable name=COOLING:COAL not valid for this simulation.\n   ** Warning ** Processing Monthly Tabular Reports: BUILDING ENERGY PERFORMANCE - COAL\n   **   ~~~   ** ..Variable name=INTERIOR LIGHTING:COAL not valid for this simulation.\n   ** Warning ** Processing Monthly Tabular Reports: BUILDING ENERGY PERFORMANCE - COAL\n   **   ~~~   ** ..Variable name=EXTERIOR LIGHTING:COAL not valid for this simulation.\n   ** Warning ** Processing Monthly Tabular Reports: BUILDING ENERGY PERFORMANCE - COAL\n   **   ~~~   ** ..Variable name=INTERIOR EQUIPMENT:COAL not valid for this simulation.\n   ** Warning ** Processing Monthly Tabular Reports: BUILDING ENERGY PERFORMANCE - COAL\n   **   ~~~   ** ..Variable name=EXTERIOR EQUIPMENT:COAL not valid for this simulation.\n   ** Warning ** Processing Monthly Tabular Reports: BUILDING ENERGY PERFORMANCE - COAL\n   **   ~~~   ** ..Variable name=FANS:COAL not valid for this simulation.\n   ** Warning ** Processing Monthly Tabular Reports: BUILDING ENERGY PERFORMANCE - COAL\n   **   ~~~   ** ..Variable name=PUMPS:COAL not valid for this simulation.\n   ** Warning ** Processing Monthly Tabular Reports: BUILDING ENERGY PERFORMANCE - COAL\n   **   ~~~   ** ..Variable name=HEAT REJECTION:COAL not valid for this simulation.\n   ** Warning ** Processing Monthly Tabular Reports: BUILDING ENERGY PERFORMANCE - COAL\n   **   ~~~   ** ..Variable name=HUMIDIFICATION:COAL not valid for this simulation.\n   ** Warning ** Processing Monthly Tabular Reports: BUILDING ENERGY PERFORMANCE - COAL\n   **   ~~~   ** ..Variable name=HEAT RECOVERY:COAL not valid for this simulation.\n   ** Warning ** Processing Monthly Tabular Reports: BUILDING ENERGY PERFORMANCE - COAL\n   **   ~~~   ** ..Variable name=WATER SYSTEMS:COAL not valid for this simulation.\n   ** Warning ** Processing Monthly Tabular Reports: BUILDING ENERGY PERFORMANCE - COAL\n   **   ~~~   ** ..Variable name=REFRIGERATION:COAL not valid for this simulation.\n   ** Warning ** Processing Monthly Tabular Reports: BUILDING ENERGY PERFORMANCE - COAL\n   **   ~~~   ** ..Variable name=GENERATORS:COAL not valid for this simulation.\n   ** Warning ** Processing Monthly Tabular Reports: BUILDING ENERGY PERFORMANCE - DIESEL\n   **   ~~~   ** ..Variable name=HEATING:DIESEL not valid for this simulation.\n   ** Warning ** Processing Monthly Tabular Reports: BUILDING ENERGY PERFORMANCE - DIESEL\n   **   ~~~   ** ..Variable name=COOLING:DIESEL not valid for this simulation.\n   ** Warning ** Processing Monthly Tabular Reports: BUILDING ENERGY PERFORMANCE - DIESEL\n   **   ~~~   ** ..Variable name=INTERIOR LIGHTING:DIESEL not valid for this simulation.\n   ** Warning ** Processing Monthly Tabular Reports: BUILDING ENERGY PERFORMANCE - DIESEL\n   **   ~~~   ** ..Variable name=EXTERIOR LIGHTING:DIESEL not valid for this simulation.\n   ** Warning ** Processing Monthly Tabular Reports: BUILDING ENERGY PERFORMANCE - DIESEL\n   **   ~~~   ** ..Variable name=INTERIOR EQUIPMENT:DIESEL not valid for this simulation.\n   ** Warning ** Processing Monthly Tabular Reports: BUILDING ENERGY PERFORMANCE - DIESEL\n   **   ~~~   ** ..Variable name=EXTERIOR EQUIPMENT:DIESEL not valid for this simulation.\n   ** Warning ** Processing Monthly Tabular Reports: BUILDING ENERGY PERFORMANCE - DIESEL\n   **   ~~~   ** ..Variable name=FANS:DIESEL not valid for this simulation.\n   ** Warning ** Processing Monthly Tabular Reports: BUILDING ENERGY PERFORMANCE - DIESEL\n   **   ~~~   ** ..Variable name=PUMPS:DIESEL not valid for this simulation.\n   ** Warning ** Processing Monthly Tabular Reports: BUILDING ENERGY PERFORMANCE - DIESEL\n   **   ~~~   ** ..Variable name=HEAT REJECTION:DIESEL not valid for this simulation.\n   ** Warning ** Processing Monthly Tabular Reports: BUILDING ENERGY PERFORMANCE - DIESEL\n   **   ~~~   ** ..Variable name=HUMIDIFICATION:DIESEL not valid for this simulation.\n   ** Warning ** Processing Monthly Tabular Reports: BUILDING ENERGY PERFORMANCE - DIESEL\n   **   ~~~   ** ..Variable name=HEAT RECOVERY:DIESEL not valid for this simulation.\n   ** Warning ** Processing Monthly Tabular Reports: BUILDING ENERGY PERFORMANCE - DIESEL\n   **   ~~~   ** ..Variable name=WATER SYSTEMS:DIESEL not valid for this simulation.\n   ** Warning ** Processing Monthly Tabular Reports: BUILDING ENERGY PERFORMANCE - DIESEL\n   **   ~~~   ** ..Variable name=REFRIGERATION:DIESEL not valid for this simulation.\n   ** Warning ** Processing Monthly Tabular Reports: BUILDING ENERGY PERFORMANCE - DIESEL\n   **   ~~~   ** ..Variable name=GENERATORS:DIESEL not valid for this simulation.\n   ** Warning ** Processing Monthly Tabular Reports: BUILDING ENERGY PERFORMANCE - GASOLINE\n   **   ~~~   ** ..Variable name=HEATING:GASOLINE not valid for this simulation.\n   ** Warning ** Processing Monthly Tabular Reports: BUILDING ENERGY PERFORMANCE - GASOLINE\n   **   ~~~   ** ..Variable name=COOLING:GASOLINE not valid for this simulation.\n   ** Warning ** Processing Monthly Tabular Reports: BUILDING ENERGY PERFORMANCE - GASOLINE\n   **   ~~~   ** ..Variable name=INTERIOR LIGHTING:GASOLINE not valid for this simulation.\n   ** Warning ** Processing Monthly Tabular Reports: BUILDING ENERGY PERFORMANCE - GASOLINE\n   **   ~~~   ** ..Variable name=EXTERIOR LIGHTING:GASOLINE not valid for this simulation.\n   ** Warning ** Processing Monthly Tabular Reports: BUILDING ENERGY PERFORMANCE - GASOLINE\n   **   ~~~   ** ..Variable name=INTERIOR EQUIPMENT:GASOLINE not valid for this simulation.\n   ** Warning ** Processing Monthly Tabular Reports: BUILDING ENERGY PERFORMANCE - GASOLINE\n   **   ~~~   ** ..Variable name=EXTERIOR EQUIPMENT:GASOLINE not valid for this simulation.\n   ** Warning ** Processing Monthly Tabular Reports: BUILDING ENERGY PERFORMANCE - GASOLINE\n   **   ~~~   ** ..Variable name=FANS:GASOLINE not valid for this simulation.\n   ** Warning ** Processing Monthly Tabular Reports: BUILDING ENERGY PERFORMANCE - GASOLINE\n   **   ~~~   ** ..Variable name=PUMPS:GASOLINE not valid for this simulation.\n   ** Warning ** Processing Monthly Tabular Reports: BUILDING ENERGY PERFORMANCE - GASOLINE\n   **   ~~~   ** ..Variable name=HEAT REJECTION:GASOLINE not valid for this simulation.\n   ** Warning ** Processing Monthly Tabular Reports: BUILDING ENERGY PERFORMANCE - GASOLINE\n   **   ~~~   ** ..Variable name=HUMIDIFICATION:GASOLINE not valid for this simulation.\n   ** Warning ** Processing Monthly Tabular Reports: BUILDING ENERGY PERFORMANCE - GASOLINE\n   **   ~~~   ** ..Variable name=HEAT RECOVERY:GASOLINE not valid for this simulation.\n   ** Warning ** Processing Monthly Tabular Reports: BUILDING ENERGY PERFORMANCE - GASOLINE\n   **   ~~~   ** ..Variable name=WATER SYSTEMS:GASOLINE not valid for this simulation.\n   ** Warning ** Processing Monthly Tabular Reports: BUILDING ENERGY PERFORMANCE - GASOLINE\n   **   ~~~   ** ..Variable name=REFRIGERATION:GASOLINE not valid for this simulation.\n   ** Warning ** Processing Monthly Tabular Reports: BUILDING ENERGY PERFORMANCE - GASOLINE\n   **   ~~~   ** ..Variable name=GENERATORS:GASOLINE not valid for this simulation.\n   ** Warning ** Processing Monthly Tabular Reports: BUILDING ENERGY PERFORMANCE - OTHERFUEL1\n   **   ~~~   ** ..Variable name=HEATING:OTHERFUEL1 not valid for this simulation.\n   ** Warning ** Processing Monthly Tabular Reports: BUILDING ENERGY PERFORMANCE - OTHERFUEL1\n   **   ~~~   ** ..Variable name=COOLING:OTHERFUEL1 not valid for this simulation.\n   ** Warning ** Processing Monthly Tabular Reports: BUILDING ENERGY PERFORMANCE - OTHERFUEL1\n   **   ~~~   ** ..Variable name=INTERIOR LIGHTING:OTHERFUEL1 not valid for this simulation.\n   ** Warning ** Processing Monthly Tabular Reports: BUILDING ENERGY PERFORMANCE - OTHERFUEL1\n   **   ~~~   ** ..Variable name=EXTERIOR LIGHTING:OTHERFUEL1 not valid for this simulation.\n   ** Warning ** Processing Monthly Tabular Reports: BUILDING ENERGY PERFORMANCE - OTHERFUEL1\n   **   ~~~   ** ..Variable name=INTERIOR EQUIPMENT:OTHERFUEL1 not valid for this simulation.\n   ** Warning ** Processing Monthly Tabular Reports: BUILDING ENERGY PERFORMANCE - OTHERFUEL1\n   **   ~~~   ** ..Variable name=EXTERIOR EQUIPMENT:OTHERFUEL1 not valid for this simulation.\n   ** Warning ** Processing Monthly Tabular Reports: BUILDING ENERGY PERFORMANCE - OTHERFUEL1\n   **   ~~~   ** ..Variable name=FANS:OTHERFUEL1 not valid for this simulation.\n   ** Warning ** Processing Monthly Tabular Reports: BUILDING ENERGY PERFORMANCE - OTHERFUEL1\n   **   ~~~   ** ..Variable name=PUMPS:OTHERFUEL1 not valid for this simulation.\n   ** Warning ** Processing Monthly Tabular Reports: BUILDING ENERGY PERFORMANCE - OTHERFUEL1\n   **   ~~~   ** ..Variable name=HEAT REJECTION:OTHERFUEL1 not valid for this simulation.\n   ** Warning ** Processing Monthly Tabular Reports: BUILDING ENERGY PERFORMANCE - OTHERFUEL1\n   **   ~~~   ** ..Variable name=HUMIDIFICATION:OTHERFUEL1 not valid for this simulation.\n   ** Warning ** Processing Monthly Tabular Reports: BUILDING ENERGY PERFORMANCE - OTHERFUEL1\n   **   ~~~   ** ..Variable name=HEAT RECOVERY:OTHERFUEL1 not valid for this simulation.\n   ** Warning ** Processing Monthly Tabular Reports: BUILDING ENERGY PERFORMANCE - OTHERFUEL1\n   **   ~~~   ** ..Variable name=WATER SYSTEMS:OTHERFUEL1 not valid for this simulation.\n   ** Warning ** Processing Monthly Tabular Reports: BUILDING ENERGY PERFORMANCE - OTHERFUEL1\n   **   ~~~   ** ..Variable name=REFRIGERATION:OTHERFUEL1 not valid for this simulation.\n   ** Warning ** Processing Monthly Tabular Reports: BUILDING ENERGY PERFORMANCE - OTHERFUEL1\n   **   ~~~   ** ..Variable name=GENERATORS:OTHERFUEL1 not valid for this simulation.\n   ** Warning ** Processing Monthly Tabular Reports: BUILDING ENERGY PERFORMANCE - OTHERFUEL2\n   **   ~~~   ** ..Variable name=HEATING:OTHERFUEL2 not valid for this simulation.\n   ** Warning ** Processing Monthly Tabular Reports: BUILDING ENERGY PERFORMANCE - OTHERFUEL2\n   **   ~~~   ** ..Variable name=COOLING:OTHERFUEL2 not valid for this simulation.\n   ** Warning ** Processing Monthly Tabular Reports: BUILDING ENERGY PERFORMANCE - OTHERFUEL2\n   **   ~~~   ** ..Variable name=INTERIOR LIGHTING:OTHERFUEL2 not valid for this simulation.\n   ** Warning ** Processing Monthly Tabular Reports: BUILDING ENERGY PERFORMANCE - OTHERFUEL2\n   **   ~~~   ** ..Variable name=EXTERIOR LIGHTING:OTHERFUEL2 not valid for this simulation.\n   ** Warning ** Processing Monthly Tabular Reports: BUILDING ENERGY PERFORMANCE - OTHERFUEL2\n   **   ~~~   ** ..Variable name=INTERIOR EQUIPMENT:OTHERFUEL2 not valid for this simulation.\n   ** Warning ** Processing Monthly Tabular Reports: BUILDING ENERGY PERFORMANCE - OTHERFUEL2\n   **   ~~~   ** ..Variable name=EXTERIOR EQUIPMENT:OTHERFUEL2 not valid for this simulation.\n   ** Warning ** Processing Monthly Tabular Reports: BUILDING ENERGY PERFORMANCE - OTHERFUEL2\n   **   ~~~   ** ..Variable name=FANS:OTHERFUEL2 not valid for this simulation.\n   ** Warning ** Processing Monthly Tabular Reports: BUILDING ENERGY PERFORMANCE - OTHERFUEL2\n   **   ~~~   ** ..Variable name=PUMPS:OTHERFUEL2 not valid for this simulation.\n   ** Warning ** Processing Monthly Tabular Reports: BUILDING ENERGY PERFORMANCE - OTHERFUEL2\n   **   ~~~   ** ..Variable name=HEAT REJECTION:OTHERFUEL2 not valid for this simulation.\n   ** Warning ** Processing Monthly Tabular Reports: BUILDING ENERGY PERFORMANCE - OTHERFUEL2\n   **   ~~~   ** ..Variable name=HUMIDIFICATION:OTHERFUEL2 not valid for this simulation.\n   ** Warning ** Processing Monthly Tabular Reports: BUILDING ENERGY PERFORMANCE - OTHERFUEL2\n   **   ~~~   ** ..Variable name=HEAT RECOVERY:OTHERFUEL2 not valid for this simulation.\n   ** Warning ** Processing Monthly Tabular Reports: BUILDING ENERGY PERFORMANCE - OTHERFUEL2\n   **   ~~~   ** ..Variable name=WATER SYSTEMS:OTHERFUEL2 not valid for this simulation.\n   ** Warning ** Processing Monthly Tabular Reports: BUILDING ENERGY PERFORMANCE - OTHERFUEL2\n   **   ~~~   ** ..Variable name=REFRIGERATION:OTHERFUEL2 not valid for this simulation.\n   ** Warning ** Processing Monthly Tabular Reports: BUILDING ENERGY PERFORMANCE - OTHERFUEL2\n   **   ~~~   ** ..Variable name=GENERATORS:OTHERFUEL2 not valid for this simulation.\n   ** Warning ** Processing Monthly Tabular Reports: BUILDING ENERGY PERFORMANCE - ELECTRICITY\n   **   ~~~   ** ..Variable name=EXTERIOREQUIPMENT:ELECTRICITY not valid for this simulation.\n   ** Warning ** Processing Monthly Tabular Reports: BUILDING ENERGY PERFORMANCE - ELECTRICITY\n   **   ~~~   ** ..Variable name=HEATREJECTION:ELECTRICITY not valid for this simulation.\n   ** Warning ** Processing Monthly Tabular Reports: BUILDING ENERGY PERFORMANCE - ELECTRICITY\n   **   ~~~   ** ..Variable name=HUMIDIFIER:ELECTRICITY not valid for this simulation.\n   ** Warning ** Processing Monthly Tabular Reports: BUILDING ENERGY PERFORMANCE - ELECTRICITY\n   **   ~~~   ** ..Variable name=HEATRECOVERY:ELECTRICITY not valid for this simulation.\n   ** Warning ** Processing Monthly Tabular Reports: BUILDING ENERGY PERFORMANCE - ELECTRICITY\n   **   ~~~   ** ..Variable name=COGENERATION:ELECTRICITY not valid for this simulation.\n   ** Warning ** Processing Monthly Tabular Reports: BUILDING ENERGY PERFORMANCE - ELECTRICITY\n   **   ~~~   ** ..Variable name=REFRIGERATION:ELECTRICITY not valid for this simulation.\n   ** Warning ** Processing Monthly Tabular Reports: BUILDING ENERGY PERFORMANCE - ELECTRICITY\n   **   ~~~   ** ..Variable name=EXTERIOREQUIPMENT:ELECTRICITY not valid for this simulation.\n   **   ~~~   ** ..i.e., Variable name=Meter:EXTERIOREQUIPMENT:ELECTRICITY not valid for this simulation.\n   ** Warning ** Processing Monthly Tabular Reports: BUILDING ENERGY PERFORMANCE - ELECTRICITY\n   **   ~~~   ** ..Variable name=HEATREJECTION:ELECTRICITY not valid for this simulation.\n   **   ~~~   ** ..i.e., Variable name=Meter:HEATREJECTION:ELECTRICITY not valid for this simulation.\n   ** Warning ** Processing Monthly Tabular Reports: BUILDING ENERGY PERFORMANCE - ELECTRICITY\n   **   ~~~   ** ..Variable name=HUMIDIFIER:ELECTRICITY not valid for this simulation.\n   **   ~~~   ** ..i.e., Variable name=Meter:HUMIDIFIER:ELECTRICITY not valid for this simulation.\n   ** Warning ** Processing Monthly Tabular Reports: BUILDING ENERGY PERFORMANCE - ELECTRICITY\n   **   ~~~   ** ..Variable name=HEATRECOVERY:ELECTRICITY not valid for this simulation.\n   **   ~~~   ** ..i.e., Variable name=Meter:HEATRECOVERY:ELECTRICITY not valid for this simulation.\n   ** Warning ** Processing Monthly Tabular Reports: BUILDING ENERGY PERFORMANCE - ELECTRICITY\n   **   ~~~   ** ..Variable name=COGENERATION:ELECTRICITY not valid for this simulation.\n   **   ~~~   ** ..i.e., Variable name=Meter:COGENERATION:ELECTRICITY not valid for this simulation.\n   ** Warning ** Processing Monthly Tabular Reports: BUILDING ENERGY PERFORMANCE - ELECTRICITY\n   **   ~~~   ** ..Variable name=REFRIGERATION:ELECTRICITY not valid for this simulation.\n   **   ~~~   ** ..i.e., Variable name=Meter:REFRIGERATION:ELECTRICITY not valid for this simulation.\n   ** Warning ** Processing Monthly Tabular Reports: BUILDING ENERGY PERFORMANCE - NATURAL GAS\n   **   ~~~   ** ..Variable name=INTERIOREQUIPMENT:NATURALGAS not valid for this simulation.\n   ** Warning ** Processing Monthly Tabular Reports: BUILDING ENERGY PERFORMANCE - NATURAL GAS\n   **   ~~~   ** ..Variable name=EXTERIOREQUIPMENT:NATURALGAS not valid for this simulation.\n   ** Warning ** Processing Monthly Tabular Reports: BUILDING ENERGY PERFORMANCE - NATURAL GAS\n   **   ~~~   ** ..Variable name=COOLING:NATURALGAS not valid for this simulation.\n   ** Warning ** Processing Monthly Tabular Reports: BUILDING ENERGY PERFORMANCE - NATURAL GAS\n   **   ~~~   ** ..Variable name=WATERSYSTEMS:NATURALGAS not valid for this simulation.\n   ** Warning ** Processing Monthly Tabular Reports: BUILDING ENERGY PERFORMANCE - NATURAL GAS\n   **   ~~~   ** ..Variable name=COGENERATION:NATURALGAS not valid for this simulation.\n   ** Warning ** Processing Monthly Tabular Reports: BUILDING ENERGY PERFORMANCE - NATURAL GAS\n   **   ~~~   ** ..Variable name=INTERIOREQUIPMENT:NATURALGAS not valid for this simulation.\n   **   ~~~   ** ..i.e., Variable name=Meter:INTERIOREQUIPMENT:NATURALGAS not valid for this simulation.\n   ** Warning ** Processing Monthly Tabular Reports: BUILDING ENERGY PERFORMANCE - NATURAL GAS\n   **   ~~~   ** ..Variable name=EXTERIOREQUIPMENT:NATURALGAS not valid for this simulation.\n   **   ~~~   ** ..i.e., Variable name=Meter:EXTERIOREQUIPMENT:NATURALGAS not valid for this simulation.\n   ** Warning ** Processing Monthly Tabular Reports: BUILDING ENERGY PERFORMANCE - NATURAL GAS\n   **   ~~~   ** ..Variable name=COOLING:NATURALGAS not valid for this simulation.\n   **   ~~~   ** ..i.e., Variable name=Meter:COOLING:NATURALGAS not valid for this simulation.\n   ** Warning ** Processing Monthly Tabular Reports: BUILDING ENERGY PERFORMANCE - NATURAL GAS\n   **   ~~~   ** ..Variable name=WATERSYSTEMS:NATURALGAS not valid for this simulation.\n   **   ~~~   ** ..i.e., Variable name=Meter:WATERSYSTEMS:NATURALGAS not valid for this simulation.\n   ** Warning ** Processing Monthly Tabular Reports: BUILDING ENERGY PERFORMANCE - NATURAL GAS\n   **   ~~~   ** ..Variable name=COGENERATION:NATURALGAS not valid for this simulation.\n   **   ~~~   ** ..i.e., Variable name=Meter:COGENERATION:NATURALGAS not valid for this simulation.\n   ** Warning ** Processing Monthly Tabular Reports: BUILDING ENERGY PERFORMANCE - DISTRICT HEATING\n   **   ~~~   ** ..Variable name=INTERIORLIGHTS:DISTRICTHEATING not valid for this simulation.\n   ** Warning ** Processing Monthly Tabular Reports: BUILDING ENERGY PERFORMANCE - DISTRICT HEATING\n   **   ~~~   ** ..Variable name=EXTERIORLIGHTS:DISTRICTHEATING not valid for this simulation.\n   ** Warning ** Processing Monthly Tabular Reports: BUILDING ENERGY PERFORMANCE - DISTRICT HEATING\n   **   ~~~   ** ..Variable name=INTERIOREQUIPMENT:DISTRICTHEATING not valid for this simulation.\n   ** Warning ** Processing Monthly Tabular Reports: BUILDING ENERGY PERFORMANCE - DISTRICT HEATING\n   **   ~~~   ** ..Variable name=EXTERIOREQUIPMENT:DISTRICTHEATING not valid for this simulation.\n   ** Warning ** Processing Monthly Tabular Reports: BUILDING ENERGY PERFORMANCE - DISTRICT HEATING\n   **   ~~~   ** ..Variable name=FANS:DISTRICTHEATING not valid for this simulation.\n   ** Warning ** Processing Monthly Tabular Reports: BUILDING ENERGY PERFORMANCE - DISTRICT HEATING\n   **   ~~~   ** ..Variable name=PUMPS:DISTRICTHEATING not valid for this simulation.\n   ** Warning ** Processing Monthly Tabular Reports: BUILDING ENERGY PERFORMANCE - DISTRICT HEATING\n   **   ~~~   ** ..Variable name=HEATING:DISTRICTHEATING not valid for this simulation.\n   ** Warning ** Processing Monthly Tabular Reports: BUILDING ENERGY PERFORMANCE - DISTRICT HEATING\n   **   ~~~   ** ..Variable name=COOLING:DISTRICTHEATING not valid for this simulation.\n   ** Warning ** Processing Monthly Tabular Reports: BUILDING ENERGY PERFORMANCE - DISTRICT HEATING\n   **   ~~~   ** ..Variable name=HEATREJECTION:DISTRICTHEATING not valid for this simulation.\n   ** Warning ** Processing Monthly Tabular Reports: BUILDING ENERGY PERFORMANCE - DISTRICT HEATING\n   **   ~~~   ** ..Variable name=HUMIDIFIER:DISTRICTHEATING not valid for this simulation.\n   ** Warning ** Processing Monthly Tabular Reports: BUILDING ENERGY PERFORMANCE - DISTRICT HEATING\n   **   ~~~   ** ..Variable name=HEATRECOVERY:DISTRICTHEATING not valid for this simulation.\n   ** Warning ** Processing Monthly Tabular Reports: BUILDING ENERGY PERFORMANCE - DISTRICT HEATING\n   **   ~~~   ** ..Variable name=WATERSYSTEMS:DISTRICTHEATING not valid for this simulation.\n   ** Warning ** Processing Monthly Tabular Reports: BUILDING ENERGY PERFORMANCE - DISTRICT HEATING\n   **   ~~~   ** ..Variable name=COGENERATION:DISTRICTHEATING not valid for this simulation.\n   ** Warning ** Processing Monthly Tabular Reports: BUILDING ENERGY PERFORMANCE - DISTRICT COOLING\n   **   ~~~   ** ..Variable name=INTERIORLIGHTS:DISTRICTCOOLING not valid for this simulation.\n   ** Warning ** Processing Monthly Tabular Reports: BUILDING ENERGY PERFORMANCE - DISTRICT COOLING\n   **   ~~~   ** ..Variable name=EXTERIORLIGHTS:DISTRICTCOOLING not valid for this simulation.\n   ** Warning ** Processing Monthly Tabular Reports: BUILDING ENERGY PERFORMANCE - DISTRICT COOLING\n   **   ~~~   ** ..Variable name=INTERIOREQUIPMENT:DISTRICTCOOLING not valid for this simulation.\n   ** Warning ** Processing Monthly Tabular Reports: BUILDING ENERGY PERFORMANCE - DISTRICT COOLING\n   **   ~~~   ** ..Variable name=EXTERIOREQUIPMENT:DISTRICTCOOLING not valid for this simulation.\n   ** Warning ** Processing Monthly Tabular Reports: BUILDING ENERGY PERFORMANCE - DISTRICT COOLING\n   **   ~~~   ** ..Variable name=FANS:DISTRICTCOOLING not valid for this simulation.\n   ** Warning ** Processing Monthly Tabular Reports: BUILDING ENERGY PERFORMANCE - DISTRICT COOLING\n   **   ~~~   ** ..Variable name=PUMPS:DISTRICTCOOLING not valid for this simulation.\n   ** Warning ** Processing Monthly Tabular Reports: BUILDING ENERGY PERFORMANCE - DISTRICT COOLING\n   **   ~~~   ** ..Variable name=HEATING:DISTRICTCOOLING not valid for this simulation.\n   ** Warning ** Processing Monthly Tabular Reports: BUILDING ENERGY PERFORMANCE - DISTRICT COOLING\n   **   ~~~   ** ..Variable name=COOLING:DISTRICTCOOLING not valid for this simulation.\n   ** Warning ** Processing Monthly Tabular Reports: BUILDING ENERGY PERFORMANCE - DISTRICT COOLING\n   **   ~~~   ** ..Variable name=HEATREJECTION:DISTRICTCOOLING not valid for this simulation.\n   ** Warning ** Processing Monthly Tabular Reports: BUILDING ENERGY PERFORMANCE - DISTRICT COOLING\n   **   ~~~   ** ..Variable name=HUMIDIFIER:DISTRICTCOOLING not valid for this simulation.\n   ** Warning ** Processing Monthly Tabular Reports: BUILDING ENERGY PERFORMANCE - DISTRICT COOLING\n   **   ~~~   ** ..Variable name=HEATRECOVERY:DISTRICTCOOLING not valid for this simulation.\n   ** Warning ** Processing Monthly Tabular Reports: BUILDING ENERGY PERFORMANCE - DISTRICT COOLING\n   **   ~~~   ** ..Variable name=WATERSYSTEMS:DISTRICTCOOLING not valid for this simulation.\n   ** Warning ** Processing Monthly Tabular Reports: BUILDING ENERGY PERFORMANCE - DISTRICT COOLING\n   **   ~~~   ** ..Variable name=COGENERATION:DISTRICTCOOLING not valid for this simulation.\n   ** Warning ** Processing Monthly Tabular Reports: BUILDING ENERGY PERFORMANCE - ELECTRICITY PEAK DEMAND\n   **   ~~~   ** ..Variable name=EXTERIOREQUIPMENT:ELECTRICITY not valid for this simulation.\n   ** Warning ** Processing Monthly Tabular Reports: BUILDING ENERGY PERFORMANCE - ELECTRICITY PEAK DEMAND\n   **   ~~~   ** ..Variable name=HEATREJECTION:ELECTRICITY not valid for this simulation.\n   ** Warning ** Processing Monthly Tabular Reports: BUILDING ENERGY PERFORMANCE - ELECTRICITY PEAK DEMAND\n 
[...]
                  "value" : 0.0
               },
               {
                  "name" : "fuel_oil_no_1_pumps_ip",
                  "units" : "MBtu",
                  "value" : 0.0
               },
               {
                  "name" : "fuel_oil_no_1_heat_rejection_ip",
                  "units" : "MBtu",
                  "value" : 0.0
               },
               {
                  "name" : "fuel_oil_no_1_humidification_ip",
                  "units" : "MBtu",
                  "value" : 0.0
               },
               {
                  "name" : "fuel_oil_no_1_heat_recovery_ip",
                  "units" : "MBtu",
                  "value" : 0.0
               },
               {
                  "name" : "fuel_oil_no_1_water_systems_ip",
                  "units" : "MBtu",
                  "value" : 0.0
               },
               {
                  "name" : "fuel_oil_no_1_refrigeration_ip",
                  "units" : "MBtu",
                  "value" : 0.0
               },
               {
                  "name" : "fuel_oil_no_1_generators_ip",
                  "units" : "MBtu",
                  "value" : 0.0
               },
               {
                  "name" : "fuel_oil_no_1_ip",
                  "units" : "MBtu",
                  "value" : 0.0
               },
               {
                  "name" : "fuel_oil_no_2_heating_ip",
                  "units" : "MBtu",
                  "value" : 0.0
               },
               {
                  "name" : "fuel_oil_no_2_cooling_ip",
                  "units" : "MBtu",
                  "value" : 0.0
               },
               {
                  "name" : "fuel_oil_no_2_interior_lighting_ip",
                  "units" : "MBtu",
                  "value" : 0.0
               },
               {
                  "name" : "fuel_oil_no_2_exterior_lighting_ip",
                  "units" : "MBtu",
                  "value" : 0.0
               },
               {
                  "name" : "fuel_oil_no_2_interior_equipment_ip",
                  "units" : "MBtu",
                  "value" : 0.0
               },
               {
                  "name" : "fuel_oil_no_2_exterior_equipment_ip",
                  "units" : "MBtu",
                  "value" : 0.0
               },
               {
                  "name" : "fuel_oil_no_2_fans_ip",
                  "units" : "MBtu",
                  "value" : 0.0
               },
               {
                  "name" : "fuel_oil_no_2_pumps_ip",
                  "units" : "MBtu",
                  "value" : 0.0
               },
               {
                  "name" : "fuel_oil_no_2_heat_rejection_ip",
                  "units" : "MBtu",
                  "value" : 0.0
               },
               {
                  "name" : "fuel_oil_no_2_humidification_ip",
                  "units" : "MBtu",
                  "value" : 0.0
               },
               {
                  "name" : "fuel_oil_no_2_heat_recovery_ip",
                  "units" : "MBtu",
                  "value" : 0.0
               },
               {
                  "name" : "fuel_oil_no_2_water_systems_ip",
                  "units" : "MBtu",
                  "value" : 0.0
               },
               {
                  "name" : "fuel_oil_no_2_refrigeration_ip",
                  "units" : "MBtu",
                  "value" : 0.0
               },
               {
                  "name" : "fuel_oil_no_2_generators_ip",
                  "units" : "MBtu",
                  "value" : 0.0
               },
               {
                  "name" : "fuel_oil_no_2_ip",
                  "units" : "MBtu",
                  "value" : 0.0
               },
               {
                  "name" : "propane_heating_ip",
                  "units" : "MBtu",
                  "value" : 0.0
               },
               {
                  "name" : "propane_cooling_ip",
                  "units" : "MBtu",
                  "value" : 0.0
               },
               {
                  "name" : "propane_interior_lighting_ip",
                  "units" : "MBtu",
                  "value" : 0.0
               },
               {
                  "name" : "propane_exterior_lighting_ip",
                  "units" : "MBtu",
                  "value" : 0.0
               },
               {
                  "name" : "propane_interior_equipment_ip",
                  "units" : "MBtu",
                  "value" : 0.0
               },
               {
                  "name" : "propane_exterior_equipment_ip",
                  "units" : "MBtu",
                  "value" : 0.0
               },
               {
                  "name" : "propane_fans_ip",
                  "units" : "MBtu",
                  "value" : 0.0
               },
               {
                  "name" : "propane_pumps_ip",
                  "units" : "MBtu",
                  "value" : 0.0
               },
               {
                  "name" : "propane_heat_rejection_ip",
                  "units" : "MBtu",
                  "value" : 0.0
               },
               {
                  "name" : "propane_humidification_ip",
                  "units" : "MBtu",
                  "value" : 0.0
               },
               {
                  "name" : "propane_heat_recovery_ip",
                  "units" : "MBtu",
                  "value" : 0.0
               },
               {
                  "name" : "propane_water_systems_ip",
                  "units" : "MBtu",
                  "value" : 0.0
               },
               {
                  "name" : "propane_refrigeration_ip",
                  "units" : "MBtu",
                  "value" : 0.0
               },
               {
                  "name" : "propane_generators_ip",
                  "units" : "MBtu",
                  "value" : 0.0
               },
               {
                  "name" : "propane_ip",
                  "units" : "MBtu",
                  "value" : 0.0
               },
               {
                  "name" : "other_fuel_1_heating_ip",
                  "units" : "MBtu",
                  "value" : 0.0
               },
               {
                  "name" : "other_fuel_1_cooling_ip",
                  "units" : "MBtu",
                  "value" : 0.0
               },
               {
                  "name" : "other_fuel_1_interior_lighting_ip",
                  "units" : "MBtu",
                  "value" : 0.0
               },
               {
                  "name" : "other_fuel_1_exterior_lighting_ip",
                  "units" : "MBtu",
                  "value" : 0.0
               },
               {
                  "name" : "other_fuel_1_interior_equipment_ip",
                  "units" : "MBtu",
                  "value" : 0.0
               },
               {
                  "name" : "other_fuel_1_exterior_equipment_ip",
                  "units" : "MBtu",
                  "value" : 0.0
               },
               {
                  "name" : "other_fuel_1_fans_ip",
                  "units" : "MBtu",
                  "value" : 0.0
               },
               {
                  "name" : "other_fuel_1_pumps_ip",
                  "units" : "MBtu",
                  "value" : 0.0
               },
               {
                  "name" : "other_fuel_1_heat_rejection_ip",
                  "units" : "MBtu",
                  "value" : 0.0
               },
               {
                  "name" : "other_fuel_1_humidification_ip",
                  "units" : "MBtu",
                  "value" : 0.0
               },
               {
                  "name" : "other_fuel_1_heat_recovery_ip",
                  "units" : "MBtu",
                  "value" : 0.0
               },
               {
                  "name" : "other_fuel_1_water_systems_ip",
                  "units" : "MBtu",
                  "value" : 0.0
               },
               {
                  "name" : "other_fuel_1_refrigeration_ip",
                  "units" : "MBtu",
                  "value" : 0.0
               },
               {
                  "name" : "other_fuel_1_generators_ip",
                  "units" : "MBtu",
                  "value" : 0.0
               },
               {
                  "name" : "other_fuel_1_ip",
                  "units" : "MBtu",
                  "value" : 0.0
               },
               {
                  "name" : "other_fuel_2_heating_ip",
                  "units" : "MBtu",
                  "value" : 0.0
               },
               {
                  "name" : "other_fuel_2_cooling_ip",
                  "units" : "MBtu",
                  "value" : 0.0
               },
               {
                  "name" : "other_fuel_2_interior_lighting_ip",
                  "units" : "MBtu",
                  "value" : 0.0
               },
               {
                  "name" : "other_fuel_2_exterior_lighting_ip",
                  "units" : "MBtu",
                  "value" : 0.0
               },
               {
                  "name" : "other_fuel_2_interior_equipment_ip",
                  "units" : "MBtu",
                  "value" : 0.0
               },
               {
                  "name" : "other_fuel_2_exterior_equipment_ip",
                  "units" : "MBtu",
                  "value" : 0.0
               },
               {
                  "name" : "other_fuel_2_fans_ip",
                  "units" : "MBtu",
                  "value" : 0.0
               },
               {
                  "name" : "other_fuel_2_pumps_ip",
                  "units" : "MBtu",
                  "value" : 0.0
               },
               {
                  "name" : "other_fuel_2_heat_rejection_ip",
                  "units" : "MBtu",
                  "value" : 0.0
               },
               {
                  "name" : "other_fuel_2_humidification_ip",
                  "units" : "MBtu",
                  "value" : 0.0
               },
               {
                  "name" : "other_fuel_2_heat_recovery_ip",
                  "units" : "MBtu",
                  "value" : 0.0
               },
               {
                  "name" : "other_fuel_2_water_systems_ip",
                  "units" : "MBtu",
                  "value" : 0.0
               },
               {
                  "name" : "other_fuel_2_refrigeration_ip",
                  "units" : "MBtu",
                  "value" : 0.0
               },
               {
                  "name" : "other_fuel_2_generators_ip",
                  "units" : "MBtu",
                  "value" : 0.0
               },
               {
                  "name" : "other_fuel_2_ip",
                  "units" : "MBtu",
                  "value" : 0.0
               },
               {
                  "name" : "district_cooling_heating_ip",
                  "units" : "MBtu",
                  "value" : 0.0
               },
               {
                  "name" : "district_cooling_cooling_ip",
                  "units" : "MBtu",
                  "value" : 0.0
               },
               {
                  "name" : "district_cooling_interior_lighting_ip",
                  "units" : "MBtu",
                  "value" : 0.0
               },
               {
                  "name" : "district_cooling_exterior_lighting_ip",
                  "units" : "MBtu",
                  "value" : 0.0
               },
               {
                  "name" : "district_cooling_interior_equipment_ip",
                  "units" : "MBtu",
                  "value" : 0.0
               },
               {
                  "name" : "district_cooling_exterior_equipment_ip",
                  "units" : "MBtu",
                  "value" : 0.0
               },
               {
                  "name" : "district_cooling_fans_ip",
                  "units" : "MBtu",
                  "value" : 0.0
               },
               {
                  "name" : "district_cooling_pumps_ip",
                  "units" : "MBtu",
                  "value" : 0.0
               },
               {
                  "name" : "district_cooling_heat_rejection_ip",
                  "units" : "MBtu",
                  "value" : 0.0
               },
               {
                  "name" : "district_cooling_humidification_ip",
                  "units" : "MBtu",
                  "value" : 0.0
               },
               {
                  "name" : "district_cooling_heat_recovery_ip",
                  "units" : "MBtu",
                  "value" : 0.0
               },
               {
                  "name" : "district_cooling_water_systems_ip",
                  "units" : "MBtu",
                  "value" : 0.0
               },
               {
                  "name" : "district_cooling_refrigeration_ip",
                  "units" : "MBtu",
                  "value" : 0.0
               },
               {
                  "name" : "district_cooling_generators_ip",
                  "units" : "MBtu",
                  "value" : 0.0
               },
               {
                  "name" : "district_cooling_ip",
                  "units" : "MBtu",
                  "value" : 0.0
               },
               {
                  "name" : "district_heating_heating_ip",
                  "units" : "MBtu",
                  "value" : 0.0
               },
               {
                  "name" : "district_heating_cooling_ip",
                  "units" : "MBtu",
                  "value" : 0.0
               },
               {
                  "name" : "district_heating_interior_lighting_ip",
                  "units" : "MBtu",
                  "value" : 0.0
               },
               {
                  "name" : "district_heating_exterior_lighting_ip",
                  "units" : "MBtu",
                  "value" : 0.0
               },
               {
                  "name" : "district_heating_interior_equipment_ip",
                  "units" : "MBtu",
                  "value" : 0.0
               },
               {
                  "name" : "district_heating_exterior_equipment_ip",
                  "units" : "MBtu",
                  "value" : 0.0
               },
               {
                  "name" : "district_heating_fans_ip",
                  "units" : "MBtu",
                  "value" : 0.0
               },
               {
                  "name" : "district_heating_pumps_ip",
                  "units" : "MBtu",
                  "value" : 0.0
               },
               {
                  "name" : "district_heating_heat_rejection_ip",
                  "units" : "MBtu",
                  "value" : 0.0
               },
               {
                  "name" : "district_heating_humidification_ip",
                  "units" : "MBtu",
                  "value" : 0.0
               },
               {
                  "name" : "district_heating_heat_recovery_ip",
                  "units" : "MBtu",
                  "value" : 0.0
               },
               {
                  "name" : "district_heating_water_systems_ip",
                  "units" : "MBtu",
                  "value" : 0.0
               },
               {
                  "name" : "district_heating_refrigeration_ip",
                  "units" : "MBtu",
                  "value" : 0.0
               },
               {
                  "name" : "district_heating_generators_ip",
                  "units" : "MBtu",
                  "value" : 0.0
               },
               {
                  "name" : "district_heating_ip",
                  "units" : "MBtu",
                  "value" : 0.0
               },
               {
                  "name" : "typical_attic_soffit",
                  "units" : "ft^2",
                  "value" : 611.60538987744542
               },
               {
                  "name" : "typical_insulated_wood_framed_exterior_wall_r_11_24",
                  "units" : "ft^2",
                  "value" : 2345.7731019350922
               },
               {
                  "name" : "typical_uninsulated_wood_joist_attic_roof",
                  "units" : "ft^2",
                  "value" : 6445.0170971784082
               },
               {
                  "name" : "typical_insulated_metal_door_r_1_43",
                  "units" : "ft^2",
                  "value" : 41.999999999999943
               },
               {
                  "name" : "u_0_62_shgc_0_25_dbl_ref_c_h_clr_6_mm_6_mm_air",
                  "units" : "ft^2",
                  "value" : 600.39370078740149
               },
               {
                  "name" : "u_0_88_shgc_0_16_sgl_ref_a_l_clr_6_mm",
                  "units" : "ft^2",
                  "value" : 42.03543823754314
               },
               {
                  "name" : "gross_window_wall_ratio",
                  "units" : "%",
                  "value" : 21.199999999999999
               },
               {
                  "name" : "gross_window_wall_ratio_conditioned",
                  "units" : "%",
                  "value" : 21.199999999999999
               },
               {
                  "name" : "skylight_roof_ratio",
                  "units" : "%",
                  "value" : 0.0
               },
               {
                  "name" : "space_type_office_attic",
                  "units" : "ft^2",
                  "value" : 0.0
               },
               {
                  "name" : "space_type_office_whole_building_sm_office",
                  "units" : "ft^2",
                  "value" : 5502.0524624382588
               },
               {
                  "name" : "main_service_water_use_0_06_gpm_at_140_f",
                  "units" : "gal/min",
                  "value" : 0.063999999999999974
               },
               {
                  "name" : "zone_max_hours_over_70_rh",
                  "units" : "hr",
                  "value" : 1780.0
               },
               {
                  "name" : "zone_max_hours_over_55_rh",
                  "units" : "hr",
                  "value" : 2930.0
               },
               {
                  "name" : "num_zones_x_hours_over_70",
                  "units" : "zones",
                  "value" : 1
               },
               {
                  "name" : "num_zones_x_hours_over_55",
                  "units" : "zones",
                  "value" : 5
               },
               {
                  "name" : "inflation_approach",
                  "value" : "Constant Dollar"
               },
               {
                  "name" : "analysis_length",
                  "units" : "yrs",
                  "value" : 25
               },
               {
                  "name" : "number_of_measures_with_warnings",
                  "value" : 0
               },
               {
                  "name" : "number_warnings",
                  "value" : 0
               },
               {
                  "name" : "annual_peak_electric_demand",
                  "units" : "kW",
                  "value" : 20.59966
               },
               {
                  "name" : "first_year_capital_cost",
                  "units" : "$",
                  "value" : 0.0
               },
               {
                  "name" : "annual_utility_cost",
                  "units" : "$",
                  "value" : 0.0
               },
               {
                  "name" : "total_lifecycle_cost",
                  "units" : "$",
                  "value" : 0.0
               }
            ],
            "step_warnings" : []
         }
      }
   ],
   "updated_at" : "20220326T000035Z",
   "weather_file" : "Red_Bluff.epw"
}